29

C -4.548977 -1.246535 -0.000096
C -3.497070 -0.213554 0.000140
O -2.183670 -0.720161 0.000198
C -1.329433 0.396292 0.000022
C -2.084064 1.545223 -0.000078
C -3.474501 1.157011 0.000015
B 0.235853 0.143143 0.000003
O 0.651828 -0.605388 1.216648
C 2.050548 -0.805314 1.248268
C 2.709953 -0.161883 -0.000010
C 4.226331 -0.351618 -0.000018
C 2.050494 -0.805633 -1.248095
O 0.651797 -0.605523 -1.216572
C 2.318671 1.339525 -0.000190
O 0.912513 1.475116 -0.000094
H -4.468631 -1.880171 -0.895844
H -4.442005 -1.907267 0.873085
H -5.549141 -0.800645 0.021820
H -1.711329 2.546227 -0.000163
H -4.300343 1.830504 -0.000027
H 2.416988 -0.348197 2.184451
H 2.217198 -1.896650 1.280433
H 4.490508 -1.413599 0.000708
H 4.680724 0.105251 -0.884521
H 4.680891 0.106501 0.883752
H 2.416994 -0.348839 -2.184417
H 2.217029 -1.896991 -1.279921
H 2.690267 1.857481 0.901747
H 2.690137 1.857236 -0.902314