25

C 4.428166 -0.418402 -0.000955
O 3.431848 0.631449 0.000670
C 2.104112 0.261141 0.000408
C 1.232853 1.370315 0.000517
C -0.138308 1.136175 0.000424
C -0.656049 -0.175900 0.000138
C 0.238596 -1.253704 0.000129
C 1.626132 -1.052950 0.000278
Si -2.500457 -0.452894 -0.000245
H -2.734497 -1.903153 -0.000683
C -3.266191 0.267097 1.538679
C -3.265280 0.268096 -1.539191
H 5.362486 0.157699 -0.002284
H 4.342539 -1.024543 0.905333
H 4.340013 -1.024534 -0.906997
H 1.645138 2.375185 0.000690
H -0.813752 1.996432 0.000555
H -0.129455 -2.283768 0.000074
H 2.296377 -1.903458 0.000337
H -3.157356 1.358919 1.596168
H -4.342296 0.039872 1.589968
H -2.792712 -0.156707 2.439624
H -4.341382 0.041035 -1.591259
H -3.156315 1.359945 -1.595886
H -2.791358 -0.155195 -2.440129