14

C 1.832220 -0.000018 -0.552707
C 0.782102 0.000065 0.541312
O -0.084246 1.145820 0.428967
C -1.270584 0.768542 -0.309975
C -1.270535 -0.768592 -0.309948
O -0.084228 -1.145791 0.429028
H 2.470320 0.889640 -0.485596
H 2.470404 -0.889604 -0.485359
H 1.379735 -0.000180 -1.551278
H 1.174676 0.000065 1.574942
H -2.103191 1.224003 0.249895
H -1.190153 1.212685 -1.314272
H -2.103157 -1.224086 0.249867
H -1.190063 -1.212739 -1.314253