23

C 2.895061 -1.305670 0.425124
C 3.433129 0.039542 -0.102765
N 2.437964 1.130316 -0.065017
C 1.191442 0.816567 -0.064707
S -0.133220 2.012624 0.017238
C -1.363931 0.761160 0.019342
C -2.735272 0.934318 0.076786
C -3.552548 -0.206720 0.065796
C -2.989066 -1.485750 -0.003874
C -1.603260 -1.673775 -0.064030
C -0.785957 -0.536627 -0.050291
N 0.619856 -0.493586 -0.114249
C 1.528877 -1.664032 -0.189429
H 3.618508 -2.115192 0.217330
H 2.802987 -1.252685 1.529486
H 4.299141 0.377070 0.512077
H 3.803286 -0.064860 -1.147878
H -3.176395 1.929227 0.129633
H -4.633090 -0.092736 0.111346
H -3.642265 -2.359300 -0.012434
H -1.181888 -2.671274 -0.121460
H 1.646938 -1.956175 -1.258563
H 1.078712 -2.527256 0.347790