27

N 0.327017 -0.567512 -0.874880
C 0.192677 0.807576 -0.473217
C -1.137421 1.462507 -0.782450
C -2.276338 0.991671 0.142089
C -1.857895 -0.055199 1.182761
C -1.571635 -1.445109 0.596234
C -0.890831 -1.416131 -0.782806
N 1.132581 1.542962 0.045696
C 2.411838 0.942877 0.452494
C 2.305083 -0.570552 0.708618
C 1.602066 -1.241550 -0.480830
H -1.019551 2.565950 -0.692576
H -1.396889 1.280982 -1.844750
H -2.687538 1.872925 0.674637
H -3.108560 0.594822 -0.470212
H -0.965173 0.310436 1.732078
H -2.653982 -0.144919 1.947944
H -0.945401 -2.013323 1.310870
H -2.518533 -2.012514 0.505448
H -1.608482 -1.042495 -1.550081
H -0.627462 -2.450990 -1.093076
H 3.177458 1.156710 -0.326391
H 2.737286 1.475734 1.374251
H 3.304547 -1.012914 0.861211
H 1.739259 -0.754361 1.641597
H 1.429011 -2.315452 -0.264351
H 2.261561 -1.195286 -1.379681