19

C -3.596509 0.353540 0.250554
C -2.352584 -0.050734 0.498596
C -1.434420 -0.597912 -0.557260
C 0.007540 -0.266760 -0.278432
C 0.933899 -1.285001 -0.011092
C 2.272973 -0.966412 0.234895
C 2.694821 0.366042 0.217670
C 1.771360 1.383734 -0.046205
C 0.433120 1.071469 -0.293709
H -4.052807 0.342124 -0.727745
H -4.258144 0.729940 1.016938
H -1.925827 -0.019616 1.503569
H -1.585838 -1.698531 -0.621324
H -1.710881 -0.215268 -1.564458
H 0.614536 -2.324624 0.007262
H 2.988489 -1.760663 0.441131
H 3.736785 0.611603 0.409083
H 2.096961 2.422583 -0.058756
H -0.284474 1.864650 -0.495799