16

C 3.602124 -0.000284 0.510608
N 2.723065 0.000389 -0.424519
C 1.316048 0.000083 -0.187752
C 0.618645 1.223531 -0.140327
C -0.770881 1.220156 -0.048801
C -1.468754 -0.000048 0.000996
C -2.895979 -0.000075 0.101457
N -4.049662 -0.000086 0.183952
C -0.770776 -1.220146 -0.048973
C 0.618774 -1.223386 -0.140560
H 1.164376 2.165137 -0.190576
H -1.319625 2.163286 -0.015111
H -1.319415 -2.163344 -0.015340
H 1.164571 -2.164928 -0.191012
H 3.438916 -0.001232 1.591834
H 4.662143 -0.000014 0.224284