34

O -1.918088 2.529590 -0.248181
C -1.678388 1.361613 -0.024689
C -0.324900 0.739746 0.379257
H 0.041852 1.220526 1.324400
C 0.691646 0.947754 -0.755923
C 2.051572 0.421775 -0.392018
C 2.523738 -0.770644 -0.960473
C 3.789098 -1.256638 -0.617359
C 4.588339 -0.559159 0.292718
C 4.119264 0.631011 0.859706
C 2.856896 1.122309 0.520157
N -0.627407 -0.687932 0.706597
C -2.038027 -1.019097 0.274501
C -2.072720 -1.987592 -0.917762
C -2.779453 -1.596582 1.483921
N -2.596959 0.315869 -0.133241
C -4.027239 0.524387 -0.409503
H 0.322856 0.485948 -1.694264
H 0.752256 2.037309 -0.985031
H 1.913052 -1.317007 -1.675096
H 4.152314 -2.181732 -1.062150
H 5.572107 -0.939226 0.559238
H 4.740462 1.176860 1.568541
H 2.497338 2.049263 0.963733
H 0.067594 -1.323719 0.305320
H -1.586808 -2.938867 -0.673912
H -3.102045 -2.221510 -1.213910
H -1.576743 -1.569013 -1.801018
H -2.797287 -0.878944 2.316421
H -3.811205 -1.867772 1.245093
H -2.269670 -2.491982 1.861787
H -4.643854 0.331495 0.484221
H -4.193712 1.575941 -0.718763
H -4.362199 -0.133142 -1.227845