20

C -3.346233 0.034933 -0.501347
C -2.116307 0.245022 0.377302
C -0.896153 -0.505290 -0.167063
C 0.332186 -0.269511 0.709800
O 1.395862 -1.162386 0.320996
C 2.288866 -0.467928 -0.582334
C 1.919236 1.017980 -0.451119
O 0.863943 1.057547 0.538831
H -3.180492 0.397103 -1.522467
H -3.619514 -1.024282 -0.569499
H -4.213587 0.572392 -0.100846
H -1.880158 1.327627 0.445867
H -2.335057 -0.085128 1.411983
H -1.095063 -1.594246 -0.222652
H -0.685978 -0.189730 -1.206703
H 0.179537 -0.409003 1.795663
H 3.299966 -0.718389 -0.222743
H 2.122939 -0.880154 -1.589806
H 2.717115 1.651012 -0.030674
H 1.522278 1.460276 -1.378171