32

C -2.532733 -2.071210 -0.896690
N -2.244085 -1.130731 0.222688
C -3.481053 -0.674201 0.941512
C -3.660490 0.825457 0.609039
N -2.456991 1.212611 -0.199035
C -1.875675 2.534038 0.144786
C -1.542536 0.088626 -0.212164
N -0.304261 0.230828 -0.558434
C 0.628528 -0.906320 -0.647337
C 2.010046 -0.429956 -0.250904
C 2.553826 0.732631 -0.817980
C 3.843305 1.142227 -0.471564
C 4.598770 0.394728 0.438559
C 4.056561 -0.761384 1.007393
C 2.764647 -1.174115 0.667540
H -3.227371 -1.673472 -1.653353
H -1.593193 -2.339500 -1.406551
H -2.955875 -2.999486 -0.478945
H -4.375570 -1.266363 0.677907
H -3.294242 -0.828283 2.026332
H -4.551648 1.002543 -0.028996
H -3.781601 1.433840 1.525188
H -1.507857 2.609765 1.179437
H -1.017011 2.728597 -0.528693
H -2.629587 3.315640 -0.034617
H 0.324223 -1.778361 -0.022152
H 0.661167 -1.264751 -1.705320
H 1.955304 1.319078 -1.515942
H 4.260714 2.046150 -0.910743
H 5.603428 0.713977 0.704495
H 4.639592 -1.341885 1.719470
H 2.347707 -2.069558 1.122808