16

Br -2.664533 -0.201307 -0.000029
C -0.777010 0.123441 -0.000011
C -0.337194 1.471211 0.000005
C 1.014164 1.767707 0.000023
C 1.917874 0.685703 0.000024
C 1.469791 -0.681884 0.000009
C 2.645354 -1.512422 0.000033
C 3.748128 -0.677629 0.000025
N 3.321305 0.667806 0.000044
C 0.089079 -0.954555 -0.000009
H -1.073181 2.276978 0.000004
H 1.369221 2.793545 0.000035
H 2.644303 -2.584024 0.000037
H 4.794308 -0.930751 0.000032
H 3.917241 1.471454 0.000021
H -0.263497 -1.985528 -0.000014