21

C 1.774598 -0.898714 1.534005
Si 1.226605 -0.001923 -0.000148
C -0.652153 0.077564 0.000059
C -1.502162 1.164991 0.000070
C -2.856166 0.666583 0.000284
C -2.769741 -0.699812 0.000406
O -1.434432 -1.102166 0.000254
C 1.824543 1.762355 -0.000999
C 1.774226 -0.900084 -1.533630
H 1.346480 -1.914739 1.559417
H 2.869117 -0.992748 1.583823
H 1.439112 -0.376098 2.443567
H -1.242317 2.206338 -0.000060
H -3.737661 1.275065 0.000339
H -3.456409 -1.514027 0.000567
H 2.925141 1.796852 -0.001241
H 1.473477 2.307070 -0.890843
H 1.473845 2.307814 0.888533
H 1.345918 -1.916053 -1.558132
H 1.438700 -0.378166 -2.443578
H 2.868720 -0.994358 -1.583528