38

O -2.226826 -2.306134 -0.000045
C -1.704320 -1.199453 0.000009
C -0.369597 -0.733993 -0.000010
C -0.116206 0.750309 0.000057
C 0.654463 1.195412 1.267102
C 0.893469 2.710960 1.267607
C 1.642990 3.152757 0.000091
C 0.893336 2.711094 -1.267393
C 0.654328 1.195547 -1.267024
C 0.687424 -1.671935 -0.000096
O 1.973374 -1.037636 -0.000186
C 3.107834 -1.937037 -0.000279
C 4.322819 -1.019098 0.000050
O 0.733853 -2.895931 -0.000119
O -2.634421 -0.106661 0.000120
C -4.031899 -0.483265 0.000154
C -4.786493 0.839380 -0.000057
H -1.102276 1.285299 0.000139
H 0.088884 0.888488 2.162081
H 1.619717 0.650658 1.306466
H -0.076561 3.238300 1.329654
H 1.466712 3.001811 2.164782
H 1.780519 4.247047 0.000142
H 2.654129 2.702948 0.000014
H -0.076700 3.238442 -1.329283
H 1.466486 3.002039 -2.164597
H 1.619576 0.650795 -1.306549
H 0.088653 0.888718 -2.161975
H 3.047582 -2.574635 0.898202
H 3.047741 -2.574198 -0.899077
H 4.304909 -0.361816 -0.878262
H 4.304790 -0.362287 0.878712
H 5.254885 -1.586516 -0.000038
H -4.228429 -1.092494 -0.898633
H -4.228436 -1.092209 0.899130
H -4.511094 1.435450 -0.878933
H -5.866742 0.685242 -0.000027
H -4.511086 1.435737 0.878622