43

C 3.022758 4.538870 -0.555655
C 2.534474 3.300137 0.075529
S 1.952859 1.973995 -0.932989
C 2.433686 2.953615 1.385413
C 1.887976 1.624097 1.597590
C 1.575419 0.961875 0.461092
B 0.937766 -0.465027 0.142117
C -0.657484 -0.346873 0.072663
C -1.298676 -0.093927 -1.148266
C -2.685393 0.023454 -1.208725
C -3.449679 -0.113996 -0.037051
C -4.933668 0.006410 -0.060275
F -5.607194 -1.095842 0.337962
F -5.448528 0.963710 0.742720
F -5.514496 0.284054 -1.245602
C -2.810280 -0.376285 1.189552
C -1.423937 -0.490822 1.238767
O 1.389646 -0.958639 -1.183805
C 2.719824 -1.427349 -1.219244
C 2.972344 -2.504657 -0.129114
C 2.107693 -3.739824 -0.408269
C 4.465272 -2.881509 -0.112668
C 2.575611 -1.884997 1.238826
O 1.235586 -1.444658 1.220444
H 3.860796 4.337342 -1.238926
H 2.229561 5.023651 -1.144894
H 3.370830 5.266873 0.189100
H 2.716564 3.576250 2.216952
H 1.748836 1.223630 2.589089
H -0.688199 -0.002721 -2.048703
H -3.164401 0.220549 -2.164764
H -3.396629 -0.490392 2.098654
H -0.910766 -0.707934 2.176492
H 2.825618 -1.843603 -2.236501
H 3.415162 -0.575678 -1.098419
H 2.320184 -4.178424 -1.383674
H 2.225276 -4.505958 0.358643
H 1.048508 -3.420756 -0.405565
H 5.094036 -2.008801 0.087599
H 4.672311 -3.628190 0.658415
H 4.773175 -3.302367 -1.073559
H 2.600371 -2.633966 2.049235
H 3.238682 -1.038516 1.498253