31

C 1.154791 -2.167910 -0.000149
C 0.996492 -0.841409 -0.000202
O -0.262145 -0.344735 -0.000366
Si -1.815428 0.056678 0.000006
C -2.617847 -0.632443 1.526816
C -1.949114 1.912843 -0.004085
C -2.620438 -0.639297 -1.522320
C 2.059193 0.265501 -0.000023
C 3.467891 -0.351531 -0.000005
C 1.871713 1.120538 -1.264369
C 1.871539 1.120229 1.264510
H 2.110450 -2.659277 0.000016
H 0.321146 -2.853223 -0.000247
H -2.152911 -0.237006 2.441288
H -3.685163 -0.359621 1.534195
H -2.540964 -1.729316 1.556710
H -1.482834 2.354648 -0.895272
H -3.017446 2.186279 -0.003596
H -1.480949 2.358760 0.884053
H -2.543596 -1.736290 -1.547445
H -3.687765 -0.366506 -1.529126
H -2.157036 -0.247950 -2.439332
H 3.637850 -0.974198 -0.885322
H 4.235745 0.430034 0.000104
H 3.637765 -0.974357 0.885215
H 0.871468 1.572875 -1.292149
H 2.603223 1.933042 -1.308064
H 1.982401 0.521316 -2.174552
H 1.982212 0.520803 2.174562
H 2.602979 1.932784 1.308450
H 0.871257 1.572473 1.292323