45

C -2.353525 -1.401707 2.774783
C -1.828391 -0.200395 2.501956
C -2.671519 1.041365 2.501041
C -0.373763 -0.008720 2.213676
Si 0.106595 -0.005119 0.389945
C -0.148816 -1.685292 -0.392029
C -1.409205 -2.304551 -0.321845
C -1.622676 -3.554144 -0.912927
C -0.579244 -4.199551 -1.584218
C 0.676954 -3.592499 -1.662973
C 0.890603 -2.342209 -1.070142
C -0.877962 1.287080 -0.545774
C -1.646537 0.960089 -1.673031
C -2.373417 1.946998 -2.351209
C -2.337271 3.271735 -1.909732
C -1.571469 3.610767 -0.788890
C -0.846294 2.625215 -0.112387
C 1.930318 0.433483 0.300334
C 2.856912 -0.251190 1.106417
C 4.220861 0.051203 1.039893
C 4.677297 1.040992 0.163320
C 3.766745 1.724084 -0.646835
C 2.401328 1.420831 -0.579208
H -3.393817 -1.560960 2.999189
H -1.780581 -2.313810 2.790946
H -2.269130 1.803334 3.179646
H -2.715975 1.490361 1.496513
H -3.705803 0.845373 2.810082
H -0.002038 0.947930 2.651830
H 0.231610 -0.811373 2.702321
H -2.239770 -1.819475 0.201724
H -2.601235 -4.024961 -0.848501
H -0.745505 -5.171893 -2.043704
H 1.490447 -4.091069 -2.185314
H 1.881884 -1.887422 -1.146347
H -1.688223 -0.069142 -2.040011
H -2.966032 1.679779 -3.223746
H -2.901859 4.038842 -2.436164
H -1.539866 4.642368 -0.445168
H -0.252681 2.913118 0.758635
H 2.526792 -1.032792 1.794261
H 4.927951 -0.484351 1.669804
H 5.738453 1.276799 0.112030
H 4.118063 2.492418 -1.332446
H 1.709406 1.967097 -1.226125