21

C -1.838513 1.414616 -0.000172
C -1.261716 0.207709 0.000000
Si 0.608214 -0.022119 -0.000016
C 1.085764 -0.974690 1.534826
C 1.085605 -0.975951 -1.534125
C 1.464079 1.638587 -0.000748
C -2.101025 -1.041138 0.000226
H -2.909740 1.563727 -0.000154
H -1.298148 2.350325 -0.000352
H 0.651560 -1.984560 1.534147
H 2.177810 -1.078628 1.611509
H 0.732571 -0.456384 2.439404
H 0.732301 -0.458401 -2.439092
H 2.177644 -1.079934 -1.610848
H 0.651419 -1.985828 -1.532556
H 1.193552 2.226601 0.888860
H 2.556985 1.514618 -0.000834
H 1.193332 2.225922 -0.890739
H -1.901238 -1.659975 -0.886320
H -1.900820 -1.659966 0.886683
H -3.177386 -0.822653 0.000481