33

C -0.390331 -0.708847 2.419113
N -1.130384 -1.138461 1.208296
C -0.306837 -1.550793 0.000122
N -1.130416 -1.138636 -1.208089
C -0.390393 -0.709198 -2.418985
C -2.137253 -0.239247 -0.717004
C -3.087438 0.480763 -1.427314
C -4.048521 1.204076 -0.696993
C -4.048503 1.204177 0.696935
C -3.087402 0.480969 1.427337
C -2.137235 -0.239143 0.717107
C 1.119762 -1.022682 0.000064
C 2.188367 -1.929776 0.000123
C 3.508931 -1.467156 0.000069
C 3.778144 -0.095781 -0.000046
C 2.699842 0.792914 -0.000106
Cl 3.017709 2.489801 -0.000250
C 1.375001 0.356526 -0.000053
H 0.058074 0.294814 2.355038
H -1.092260 -0.720762 3.271846
H 0.409219 -1.434819 2.640485
H -0.316342 -2.677306 0.000204
H 0.409150 -1.435203 -2.640272
H -1.092343 -0.721234 -3.271699
H 0.058016 0.294472 -2.355064
H -3.100667 0.482667 -2.512728
H -4.803982 1.770980 -1.237966
H -4.803951 1.771160 1.237846
H -3.100603 0.483031 2.512751
H 1.994669 -3.002682 0.000213
H 4.333932 -2.179971 0.000117
H 4.803219 0.273452 -0.000089
H 0.551615 1.073652 -0.000103