28

C 3.056503 0.235025 0.611996
C 2.733812 -0.929736 -0.331862
C 1.254053 -1.323515 -0.226225
C 0.343707 -0.116328 -0.268264
C 0.774510 1.131858 -0.013650
C 2.209821 1.467405 0.257541
N -1.000844 -0.467832 -0.682642
C -1.910893 0.662560 -1.061759
C -2.852738 0.935617 0.130554
C -2.772734 -0.317058 1.022653
C -1.762479 -1.266045 0.339522
H 2.857541 -0.065344 1.658415
H 4.131431 0.484412 0.560286
H 2.967209 -0.640253 -1.375240
H 3.372804 -1.801240 -0.101260
H 0.992757 -2.022905 -1.047712
H 1.077326 -1.878636 0.717266
H 0.103396 1.986247 -0.013995
H 2.271879 2.209766 1.078149
H 2.632835 1.967099 -0.639783
H -1.355394 1.563561 -1.378562
H -2.486779 0.312644 -1.946126
H -2.536844 1.834025 0.686649
H -3.882685 1.124399 -0.210979
H -2.439241 -0.053124 2.040130
H -3.757305 -0.799187 1.130299
H -2.289894 -2.071804 -0.213899
H -1.094510 -1.753533 1.071812