30

C 4.576947 -1.029693 0.875713
C 4.155884 -0.447615 -0.470555
O 2.828145 -0.881701 -0.804046
C 1.733874 -0.185826 -0.176668
O 2.064169 0.758064 0.548059
C 0.540740 -0.740351 -0.572471
H 0.531368 -1.539752 -1.302919
P -1.002639 -0.212412 0.041068
O -1.365131 -0.123044 1.492661
O -1.501152 1.232622 -0.696004
C -1.358820 2.411431 0.115894
C 0.026097 3.014534 -0.066817
O -2.059383 -1.207024 -0.820802
C -3.455881 -0.984324 -0.564471
C -3.894272 -1.650608 0.735653
H 5.616698 -0.808982 1.113703
H 3.936412 -0.604870 1.666071
H 4.422344 -2.113065 0.895333
H 4.185961 0.657619 -0.457519
H 4.753884 -0.845491 -1.306988
H -2.147955 3.072587 -0.290637
H -1.576643 2.191217 1.182165
H 0.808124 2.387324 0.415975
H 0.300497 3.048216 -1.126780
H 0.098394 4.014726 0.357360
H -3.690050 0.098014 -0.574919
H -3.926387 -1.464163 -1.445215
H -3.561718 -2.693846 0.768666
H -3.417187 -1.155564 1.604077
H -4.974749 -1.614396 0.868998