44

C -0.860412 5.128892 1.528039
Si 0.175964 4.834673 0.000000
C -0.860412 5.128892 -1.528039
C 1.635587 6.007317 0.000000
C 0.860412 3.078936 0.000000
C -0.171112 1.948328 0.000000
C 0.513725 0.569764 0.000000
C -0.513725 -0.569764 0.000000
C 0.171112 -1.948328 0.000000
C -0.860412 -3.078936 0.000000
Si -0.175964 -4.834673 0.000000
C 0.860412 -5.128892 1.528039
C -1.635587 -6.007317 0.000000
C 0.860412 -5.128892 -1.528039
H -1.730644 4.456445 1.544754
H -0.277524 4.948120 2.442593
H -1.231840 6.162925 1.562489
H -1.231840 6.162925 -1.562489
H -0.277524 4.948120 -2.442593
H -1.730644 4.456445 -1.544754
H 2.265461 5.862285 0.888957
H 2.265461 5.862285 -0.888957
H 1.290628 7.051812 0.000000
H 1.527929 2.987957 -0.887277
H 1.527929 2.987957 0.887277
H -0.833962 2.027696 0.885280
H -0.833962 2.027696 -0.885280
H 1.175546 0.480747 -0.882111
H 1.175546 0.480747 0.882111
H -1.175546 -0.480747 0.882111
H -1.175546 -0.480747 -0.882111
H 0.833962 -2.027696 -0.885280
H 0.833962 -2.027696 0.885280
H -1.527929 -2.987957 0.887277
H -1.527929 -2.987957 -0.887277
H 0.277524 -4.948120 2.442593
H 1.231840 -6.162925 1.562489
H 1.730644 -4.456445 1.544754
H -2.265461 -5.862285 -0.888957
H -1.290628 -7.051812 0.000000
H -2.265461 -5.862285 0.888957
H 1.730644 -4.456445 -1.544754
H 1.231840 -6.162925 -1.562489
H 0.277524 -4.948120 -2.442593