12

N -2.654570 -0.071429 -0.026943
C -1.258269 0.392635 0.247438
C -0.182001 -0.614693 -0.144654
C 1.251312 0.009856 -0.030133
O 1.335119 1.248860 -0.107930
O 2.171498 -0.817269 0.110903
H -2.768492 -0.232707 -1.023851
H -2.806811 -0.973089 0.416463
H -1.082559 1.352536 -0.291548
H -1.179753 0.637671 1.327217
H -0.206851 -1.513991 0.485841
H -0.292728 -0.949925 -1.185209