29

C -0.726466 -0.042000 0.045390
N 0.708607 0.043732 0.246469
C 1.366453 1.024176 -0.680874
C 2.824243 1.212684 -0.232360
O 3.519563 -0.050913 -0.223306
C 2.889964 -1.016751 0.644378
C 1.435712 -1.265642 0.211734
C -1.370664 -1.121926 -0.431384
C -2.864734 -1.215391 -0.515444
C -3.584015 -0.124750 0.293057
C -2.905034 1.235322 0.091108
C -1.444203 1.185408 0.557003
H 1.335059 0.685537 -1.739306
H 0.822053 1.991890 -0.627129
H 3.411699 1.801510 -0.958067
H 2.888272 1.664247 0.773352
H 3.524962 -1.908798 0.505892
H 2.951694 -0.656877 1.686501
H 0.942341 -1.961801 0.924017
H 1.419159 -1.743099 -0.791991
H -0.848269 -1.997629 -0.804726
H -3.162544 -1.148698 -1.583605
H -3.197213 -2.214574 -0.168568
H -4.647153 -0.071110 -0.002720
H -3.574488 -0.390442 1.367850
H -2.948439 1.519502 -0.978102
H -3.449530 2.022550 0.643939
H -1.395404 1.171429 1.667735
H -0.916489 2.110771 0.250447