52

C -2.805632 4.952344 -1.312880
C -2.114147 3.748353 -0.757952
C -2.424972 2.464222 -1.226547
C -1.767340 1.351548 -0.693592
C -1.142536 3.902081 0.240850
C -0.481069 2.787412 0.783740
C 0.551588 3.030556 1.839894
C -0.806823 1.506033 0.306335
P -0.000097 -0.000046 1.077333
C -0.900915 -1.451772 0.306268
C -2.173621 -1.810236 0.783414
C -2.900727 -1.037332 1.839294
C -2.808162 -2.940431 0.240486
C -2.189041 -3.705137 -0.758099
C -2.886057 -4.905811 -1.313293
C -0.921438 -3.332330 -1.226489
C -0.286710 -2.206452 -0.693498
C 1.707699 -0.054368 0.306604
C 2.054349 0.854801 -0.693177
C 3.346864 0.868037 -1.225905
C 4.303456 -0.043259 -0.757233
C 5.692013 -0.046290 -1.311840
C 3.950606 -0.961656 0.241422
C 2.654444 -0.977227 0.784075
C 2.348499 -1.993207 1.840078
H -3.345971 5.497367 -0.525827
H -2.086268 5.653691 -1.758878
H -3.536713 4.701167 -2.091708
H -3.172430 2.329507 -2.003095
H -2.028528 0.364343 -1.087047
H -0.900289 4.899026 0.600725
H 0.302996 2.521298 2.783450
H 1.547078 2.676130 1.528728
H 0.662946 4.095233 2.082524
H -3.091272 0.002013 1.528015
H -3.878587 -1.473066 2.081643
H -2.335681 -0.998030 2.783019
H -3.792780 -3.228997 0.600139
H -3.849793 -4.632004 -1.765587
H -2.300000 -5.417247 -2.087317
H -3.094499 -5.643438 -0.525331
H -0.430934 -3.912346 -2.002927
H 0.698904 -1.939098 -1.086804
H 1.330072 1.574632 -1.086709
H 3.604062 1.582785 -2.002341
H 6.433741 0.151660 -0.524987
H 5.940872 -1.020665 -1.755611
H 5.839470 0.710862 -2.092302
H 4.692803 -1.669947 0.601367
H 2.031855 -1.523354 2.783695
H 1.543690 -2.677934 1.528830
H 3.214742 -2.622180 2.082612