19

C 3.307505 -1.360167 0.000000
C 2.390750 -0.139470 0.000000
C 0.913764 -0.548990 0.000000
C 0.000000 0.674513 0.000000
O -1.337503 0.086023 0.000000
C -2.384333 0.993256 0.000000
C -3.616104 0.481821 0.000000
H 3.143817 -1.989350 0.882926
H 3.143817 -1.989350 -0.882926
H 4.362633 -1.063617 0.000000
H 2.609538 0.490356 0.885101
H 2.609538 0.490356 -0.885101
H 0.682054 -1.183941 -0.879397
H 0.682054 -1.183941 0.879397
H 0.115085 1.292880 0.905163
H 0.115085 1.292880 -0.905163
H -2.118195 2.042575 0.000000
H -3.809439 -0.580345 0.000000
H -4.505459 1.087535 0.000000