43

C 0.180019 5.700123 -0.987977
C 0.124740 4.306151 -0.451482
C 1.000668 3.917790 0.576351
C 0.951528 2.619553 1.090705
C -0.797063 3.378729 -0.958674
C -0.841838 2.076749 -0.447493
C 0.032335 1.702355 0.572719
P 0.000021 0.000032 1.353202
C -1.490394 -0.823155 0.572720
C -2.744169 -0.487012 1.091868
C -3.893029 -1.093565 0.577457
C -3.791498 -2.045010 -0.451598
C -5.026370 -2.693948 -0.988266
C -2.527552 -2.378289 -0.959975
C -1.377643 -1.766084 -0.448730
C 1.458092 -0.879167 0.572723
C 1.792931 -2.133671 1.090955
C 2.892608 -2.825440 0.576583
C 3.666699 -2.261281 -0.451524
C 4.846332 -3.006108 -0.987938
C 3.324314 -0.999387 -0.958957
C 2.219222 -0.309533 -0.447760
H 1.195006 5.964436 -1.316316
H -0.485905 5.851950 -1.846976
H -0.113462 6.429909 -0.219344
H 1.716612 4.631593 0.976849
H 1.641197 2.350659 1.893994
H -1.481615 3.668388 -1.752326
H -1.569668 1.376540 -0.864921
H -2.856047 0.243658 1.896123
H -4.869077 -0.831448 0.978848
H -5.761005 -1.946855 -1.320021
H -4.824417 -3.349338 -1.845039
H -5.513972 -3.310049 -0.218752
H -2.436210 -3.114920 -1.754599
H -0.407422 -2.045271 -0.867061
H 1.215375 -2.596327 1.894447
H 3.152905 -3.802255 0.977292
H 4.569013 -4.019130 -1.311543
H 5.307743 -2.507864 -1.850052
H 5.627112 -3.112186 -0.220689
H 3.917307 -0.551552 -1.752808
H 1.976632 0.670782 -0.865382