59

H 0.000232 -0.000242 -2.307339
C 0.000114 -0.000101 -1.178941
C 0.196134 -1.438154 -0.737351
C 1.066197 -2.264051 -1.467106
C 1.279810 -3.588371 -1.095255
C 0.616550 -4.132171 0.029048
N 0.720662 -5.529132 0.327949
C 1.972797 -6.198239 -0.126631
C 0.381248 -5.922812 1.724836
C -0.252947 -3.297629 0.765299
C -0.456407 -1.973168 0.380776
C 1.147493 0.888749 -0.737495
C 1.936370 0.591852 0.381345
C 2.981659 1.430315 0.765778
C 3.270392 2.599904 0.028719
N 4.428180 3.388500 0.327647
C 4.937961 3.292413 1.724924
C 4.382152 4.807098 -0.128054
C 2.468578 2.901667 -1.096317
C 1.428468 2.054487 -1.468072
C -1.343400 0.549231 -0.737781
C -2.493454 0.208742 -1.467923
C -3.747257 0.685955 -1.096480
C -3.886914 1.532241 0.027790
N -5.148870 2.140599 0.326286
C -6.354271 1.390727 -0.128586
C -5.320530 2.631324 1.723148
C -2.729658 1.867944 0.764405
C -1.480801 1.381869 0.380293
H 1.591060 -1.863650 -2.334822
H 1.952815 -4.202603 -1.688839
H 2.884958 -5.812405 0.353750
H 1.902022 -7.279881 0.071257
H 2.075607 -6.079474 -1.219825
H -0.654027 -5.611870 1.950896
H 0.410398 -7.020869 1.812502
H 1.050247 -5.492612 2.485721
H -0.786400 -3.681512 1.631253
H -1.137371 -1.348770 0.962141
H 1.735515 -0.309549 0.963327
H 3.580272 1.160833 1.632299
H 5.185798 2.240475 1.952046
H 5.874491 3.866419 1.812635
H 4.230586 3.657602 2.485077
H 3.592020 5.404774 0.351679
H 5.354392 5.286432 0.069698
H 4.228161 4.835975 -1.221307
H 2.664633 3.791061 -1.690545
H 0.819882 2.308270 -2.336374
H -2.408869 -0.445990 -2.335624
H -4.615529 0.410296 -1.690355
H -6.476719 0.408188 0.352338
H -7.255581 1.993193 0.068387
H -6.302217 1.241595 -1.221654
H -4.533432 3.372100 1.949657
H -6.285891 3.155476 1.810390
H -5.283131 1.836773 2.483978
H -2.795651 2.521893 1.630325
H -0.599759 1.659386 0.961945