19

C -4.395053 -0.166950 0.000000
C -3.105540 -0.977142 0.000000
O -2.047094 0.009345 0.000000
C -0.711940 -0.519654 0.000000
O -0.631793 -1.742292 0.000000
C 0.204389 0.518753 0.000000
H -0.229908 1.512019 0.000000
S 1.831366 0.363487 0.000000
C 2.404962 2.069638 0.000000
O 2.404962 -0.204414 1.235975
O 2.404962 -0.204414 -1.235975
H -5.274592 -0.813190 0.000000
H -4.434348 0.487669 0.879292
H -4.434348 0.487669 -0.879292
H -2.992811 -1.607333 0.898842
H -2.992811 -1.607333 -0.898842
H 2.066008 2.606067 0.884352
H 3.495742 2.098907 0.000000
H 2.066008 2.606067 -0.884352