23

C -3.364218 0.000527 0.569022
C -2.239897 -0.001239 -0.456833
C -0.863488 -0.000203 0.197869
O -0.130482 -1.145720 -0.287681
C 1.250194 -0.778681 -0.536587
H 1.447343 -1.186107 -1.552827
C 2.121144 -1.457584 0.505373
C 1.249779 0.778846 -0.536948
H 1.447319 1.185993 -1.553216
C 2.119500 1.458738 0.505361
O -0.131394 1.145074 -0.289284
H -3.326363 -0.885025 1.215164
H -3.325347 0.887434 1.213246
H -4.344232 0.000579 0.076061
H -2.318959 -0.887328 -1.123628
H -2.318926 0.882586 -1.126625
H -0.836922 0.000436 1.301264
H 1.963129 -2.545248 0.480620
H 3.185638 -1.266288 0.337795
H 1.870657 -1.133019 1.522812
H 3.184210 1.267321 0.339224
H 1.961511 2.546373 0.479473
H 1.867874 1.135032 1.522804