19

Cl -3.533975 -0.542897 -0.000288
C -1.874889 -0.047324 -0.000127
C -1.606997 1.341587 0.000037
C -0.297367 1.794966 0.000171
C 0.724397 0.828589 0.000147
C 0.446137 -0.584527 -0.000028
C 1.711462 -1.269072 -0.000036
C 2.711006 -0.309448 0.000131
C 4.180040 -0.468055 0.000245
N 2.125038 0.979510 0.000195
C -0.889739 -1.020474 -0.000167
H -2.437639 2.046900 0.000053
H -0.066422 2.855669 0.000291
H 1.836541 -2.331822 -0.000166
H 4.646044 -0.014459 -0.887740
H 4.645536 -0.016975 0.889789
H 4.464872 -1.532716 -0.001185
H 2.616617 1.850745 0.000550
H -1.127534 -2.082116 -0.000304