46

C 3.863859 4.178932 -0.595689
C 3.031032 3.165748 0.077202
S 2.535836 1.716664 -0.800011
C 2.535106 3.131128 1.342142
C 1.741403 1.947712 1.627110
C 1.641504 1.092334 0.586417
B 0.933130 -0.283068 0.270102
C -0.655173 -0.084907 0.161395
C -1.462044 -0.258677 1.294352
C -2.842008 -0.084518 1.215158
C -3.431274 0.266083 -0.011668
C -4.902611 0.458059 -0.138364
F -5.644103 0.313974 0.979240
F -5.291541 1.671523 -0.586995
F -5.518873 -0.380045 -1.001503
C -2.624543 0.437969 -1.153101
C -1.246960 0.261232 -1.061742
O 1.466535 -0.799528 -1.031644
C 2.136999 -2.025237 -0.793634
C 1.768245 -2.965432 -1.950902
C 3.647733 -1.737758 -0.801213
C 1.610454 -2.504263 0.624676
C 0.332481 -3.357655 0.532003
C 2.664997 -3.218048 1.481607
O 1.287157 -1.302309 1.302324
H 4.813924 3.747744 -0.943897
H 3.350524 4.594085 -1.475921
H 4.105725 5.017219 0.070844
H 2.689042 3.888228 2.091679
H 1.288257 1.791907 2.592122
H -0.985511 -0.542872 2.233440
H -3.451490 -0.222786 2.104882
H -3.075211 0.708001 -2.105778
H -0.605095 0.380578 -1.936400
H 2.215094 -2.609826 -2.884301
H 2.101566 -3.985605 -1.763412
H 0.682788 -2.962635 -2.105354
H 3.907024 -1.098348 0.053612
H 4.249060 -2.643413 -0.770336
H 3.906277 -1.162407 -1.696959
H 0.524442 -4.358774 0.151365
H -0.131139 -3.432226 1.520712
H -0.402941 -2.861845 -0.115461
H 3.450263 -2.509282 1.772455
H 2.217803 -3.584574 2.410282
H 3.116489 -4.055020 0.949501