36

C -1.258389 2.424131 0.608605
N -1.999489 1.206809 1.016348
C -1.177161 -0.000340 1.431589
N -1.999531 -1.207279 1.015813
C -1.258489 -2.424464 0.607548
C -2.991650 -0.717069 0.099470
C -3.930139 -1.427305 -0.635642
C -4.879239 -0.696627 -1.374272
C -4.879212 0.697315 -1.373966
C -3.930084 1.427633 -0.635015
C -2.991624 0.717038 0.099787
C 0.249689 -0.000227 0.900231
C 1.319448 -0.000532 1.803770
C 2.638078 -0.000423 1.338470
C 2.888423 0.000002 -0.038904
C 1.819766 0.000320 -0.949793
C 0.506705 0.000207 -0.479291
C 4.292421 0.000136 -0.577600
F 4.581362 -1.057676 -1.356439
F 4.581420 1.058429 -1.355763
F 5.281794 -0.000182 0.330564
H -0.792944 2.371305 -0.387592
H -1.965120 3.273456 0.615626
H -0.473426 2.645334 1.350572
H -1.186185 -0.000592 2.557972
H -0.473535 -2.646023 1.349418
H -1.965262 -3.273757 0.614211
H -0.793046 -2.371242 -0.388629
H -3.944529 -2.512821 -0.636922
H -5.626039 -1.237455 -1.952991
H -5.625992 1.238426 -1.952447
H -3.944434 2.513150 -0.635818
H 1.131044 -0.000860 2.878501
H 3.456929 -0.000669 2.060788
H 2.008369 0.000659 -2.025754
H -0.325138 0.000464 -1.187252