41

H -1.556342 1.845062 0.000000
Si -0.805819 0.580060 0.000000
C 1.014101 1.043433 0.000000
C 2.009060 -0.118695 0.000000
C 3.461889 0.390505 0.000000
C 4.464900 -0.761184 0.000000
C -1.303143 -0.418758 1.516484
C -0.953013 0.229871 2.858847
C -1.467600 -0.616972 4.036968
C -1.116017 0.013784 5.382664
C -1.303143 -0.418758 -1.516484
C -0.953013 0.229871 -2.858847
C -1.467600 -0.616972 -4.036968
C -1.116017 0.013784 -5.382664
H 1.190813 1.697329 -0.886275
H 1.190813 1.697329 0.886275
H 1.849929 -0.767066 0.885594
H 1.849929 -0.767066 -0.885594
H 3.632758 1.036030 -0.882911
H 3.632758 1.036030 0.882911
H 5.495283 -0.389203 0.000000
H 4.345948 -1.399115 0.883018
H 4.345948 -1.399115 -0.883018
H -2.401577 -0.599251 1.455855
H -0.837194 -1.426999 1.451858
H 0.144899 0.357022 2.953792
H -1.385499 1.249069 2.927030
H -2.564597 -0.742578 3.957461
H -1.042217 -1.637334 3.978900
H -1.554468 1.012731 5.486398
H -1.486388 -0.595289 6.214503
H -0.032361 0.117372 5.508471
H -0.837194 -1.426999 -1.451858
H -2.401577 -0.599251 -1.455855
H -1.385499 1.249069 -2.927030
H 0.144899 0.357022 -2.953792
H -1.042217 -1.637334 -3.978900
H -2.564597 -0.742578 -3.957461
H -0.032361 0.117372 -5.508471
H -1.486388 -0.595289 -6.214503
H -1.554468 1.012731 -5.486398