23

O -3.915633 1.489550 -0.066460
C -4.263040 0.301972 0.111309
O -5.386333 -0.188588 0.247996
C -3.059786 -0.719950 0.168720
N -1.819962 0.056561 -0.036073
C -0.592436 -0.512270 -0.145627
C 0.571687 0.466488 -0.399627
N 1.830025 -0.311138 -0.366864
C 3.029590 0.282966 -0.034770
C 4.233176 -0.664815 0.059028
N 5.498305 0.052235 0.350461
O 3.152424 1.490961 0.132739
O -0.356396 -1.721766 -0.063277
H -3.055974 -1.236811 1.145099
H -3.189027 -1.496080 -0.606724
H -2.006163 1.080075 -0.128840
H 0.458060 0.955129 -1.394162
H 0.595187 1.288212 0.353645
H 1.693476 -1.332606 -0.388019
H 4.062343 -1.426532 0.853325
H 4.355305 -1.231608 -0.891586
H 5.657915 0.762703 -0.364296
H 5.402663 0.566304 1.226698