37

C 3.188588 0.290041 -1.529977
C 1.941478 0.588739 -1.895862
O 0.906292 0.368788 -1.069838
Si -0.237295 0.035996 0.020019
C 0.510415 -0.507528 1.674529
C 1.246249 -1.851747 1.585447
C 1.415641 0.540379 2.334087
C -1.311780 1.579625 0.295692
C -0.504125 2.825321 0.682993
C -2.238069 1.901626 -0.885368
C -1.336661 -1.328311 -0.717495
C -0.552267 -2.546582 -1.220057
C -2.443838 -1.760196 0.255906
H 3.437070 -0.136633 -0.569368
H 4.042009 0.453097 -2.165910
H 1.598686 1.019727 -2.836112
H -0.403946 -0.648546 2.326442
H 2.181442 -1.767440 1.017440
H 1.506427 -2.220071 2.584746
H 0.638054 -2.630459 1.096272
H 0.924939 1.525082 2.413900
H 1.695825 0.232094 3.348194
H 2.346124 0.687076 1.770874
H -1.956071 1.289674 1.178759
H 0.140818 3.166307 -0.136323
H -1.168751 3.658509 0.940462
H 0.143851 2.642799 1.557360
H -2.923855 1.077674 -1.116461
H -2.857722 2.779869 -0.663073
H -1.674355 2.132248 -1.797929
H -1.824709 -0.842196 -1.611506
H -1.218403 -3.267883 -1.707800
H 0.218907 -2.267592 -1.949076
H -0.047296 -3.074829 -0.394764
H -3.045879 -0.914089 0.609707
H -3.133561 -2.460065 -0.233362
H -2.041593 -2.276798 1.136596