24

O -2.373945 2.079729 -0.003513
C -1.245165 1.604627 -0.055009
C 0.000000 2.240934 0.028657
H 0.000001 3.316470 0.166611
C 1.245166 1.604626 -0.055011
N 1.189146 0.133381 -0.248946
C 2.491253 -0.601488 -0.292941
C 2.858956 -1.165364 1.078925
C 0.000000 -0.563627 -0.325147
N -1.189146 0.133382 -0.248946
C -2.491253 -0.601487 -0.292941
C -2.858956 -1.165364 1.078924
S 0.000000 -2.259006 -0.552810
O 2.373946 2.079728 -0.003513
H 2.442378 -1.411709 -1.054596
H 3.267621 0.130117 -0.626122
H 2.905186 -0.370324 1.832402
H 2.112380 -1.899321 1.414783
H 3.829976 -1.665030 1.047068
H -3.267622 0.130119 -0.626120
H -2.442380 -1.411707 -1.054597
H -2.112381 -1.899322 1.414781
H -2.905186 -0.370324 1.832402
H -3.829977 -1.665029 1.047067