12

C -1.743882 1.261434 -0.000216
N -0.966421 -0.000022 -0.000198
C -1.743825 -1.261514 0.000122
C 0.396785 0.000009 -0.000093
S 1.153114 -1.533759 0.000274
S 1.153042 1.533812 -0.000111
H -1.486104 1.869828 0.887733
H -1.485423 1.870183 -0.887738
H -2.822596 1.067843 -0.000691
H -2.822548 -1.067971 -0.000309
H -1.485407 -1.870447 -0.887286
H -1.485952 -1.869701 0.888186