12

O 2.306791 0.000000 0.000009
C 1.056198 0.000000 0.000023
C 0.292329 -1.233096 -0.000012
C -1.084699 -1.207268 -0.000023
C -1.804720 0.000000 -0.000012
C -1.084699 1.207268 0.000005
C 0.292329 1.233096 0.000016
H 0.851736 -2.153653 -0.000024
H -1.639497 -2.144455 -0.000043
H -2.879239 0.000000 -0.000022
H -1.639497 2.144455 0.000007
H 0.851736 2.153653 0.000026