10

O 1.980919 1.069111 -0.000130
N 1.402781 -0.032278 0.000001
O 2.046504 -1.080235 0.000053
C -0.008151 -0.023753 -0.000043
C -0.864608 1.137743 -0.000130
N -2.154212 0.729168 0.000306
C -2.080076 -0.686216 -0.000256
N -0.818697 -1.174930 0.000145
H -0.545337 2.162639 -0.000074
H -2.966135 -1.294023 0.000105