18

C -1.946021 1.757785 0.000000
C -1.368083 0.374128 -0.000005
C -2.293768 -0.669585 -0.000009
N -3.093454 -1.523427 0.000020
C 0.019905 0.144746 -0.000003
C 0.560664 -1.185073 -0.000007
C 1.925999 -1.403976 -0.000005
C 2.838597 -0.336366 0.000000
C 2.332338 0.969897 0.000004
C 0.968779 1.218360 0.000002
H -1.624074 2.314440 0.888827
H -1.624069 2.314448 -0.888819
H -3.041349 1.738756 -0.000003
H -0.126152 -2.023431 -0.000012
H 2.306445 -2.423126 -0.000008
H 3.899808 -0.518966 0.000001
H 3.028000 1.806207 0.000008
H 0.605118 2.236169 0.000005