35

C -3.357845 1.162869 -1.556216
Ge -3.313024 0.004715 -0.000091
C -3.355373 1.084525 1.611558
C -4.857575 -1.171010 -0.027869
C -1.698262 -1.093273 -0.028654
C -0.410278 -0.266936 -0.002107
C 0.822224 -1.160844 -0.025691
Sn 2.648306 0.002914 -0.000082
C 2.905322 0.915161 1.929311
C 4.306987 -1.306781 -0.395623
C 2.569886 1.531007 -1.509910
H -2.554960 1.903650 -1.526451
H -3.243103 0.593225 -2.481691
H -4.303046 1.707315 -1.621438
H -4.307594 1.610653 1.714384
H -3.221006 0.471980 2.506489
H -2.563984 1.838065 1.608772
H -4.869592 -1.795944 -0.924030
H -4.869402 -1.837775 0.837627
H -5.791055 -0.602933 -0.014297
H -1.715660 -1.788916 0.829384
H -1.712226 -1.737912 -0.925698
H -0.386646 0.424424 -0.870021
H -0.390427 0.372259 0.904734
H 0.838851 -1.836464 0.835847
H 0.836611 -1.794040 -0.918936
H 3.588832 0.329451 2.531898
H 3.306725 1.915244 1.820046
H 1.952938 0.975550 2.442427
H 4.405882 -1.473270 -1.461385
H 5.225532 -0.867219 -0.026073
H 4.157043 -2.261298 0.093565
H 1.910022 1.227361 -2.313813
H 2.198859 2.456251 -1.086078
H 3.558381 1.705452 -1.917049