26

C -1.670174 2.254625 -0.033849
N -1.331605 0.828482 -0.302133
C -2.352189 -0.111600 0.254371
C -2.033498 -1.527558 -0.236742
C -0.632063 -1.936881 0.225766
N 0.368547 -0.929722 -0.239386
C 1.761175 -1.292507 0.179098
C 2.744661 -0.234985 -0.337714
C 2.354235 1.149156 0.205429
N 0.913363 1.430580 0.142496
C 0.041275 0.470033 -0.050037
H -1.593173 2.540277 1.026208
H -0.968262 2.901106 -0.597977
H -2.685724 2.460328 -0.401613
H -2.399846 -0.077772 1.364192
H -3.348789 0.208242 -0.123927
H -2.787961 -2.246224 0.129420
H -2.082129 -1.553841 -1.347425
H -0.610243 -2.065554 1.330618
H -0.354384 -2.916728 -0.224575
H 1.851428 -1.394654 1.282646
H 1.996440 -2.283341 -0.268179
H 3.777293 -0.497296 -0.050650
H 2.723659 -0.218544 -1.447050
H 2.685528 1.266556 1.261925
H 2.863483 1.950367 -0.378384