14

C 1.600330 1.230149 0.030287
N 0.819337 0.000000 -0.323908
C 1.600343 -1.230142 0.030284
N -0.422510 -0.000008 0.360382
C -1.595647 0.000000 -0.410373
O -2.663049 -0.000001 0.179715
H 2.498200 1.259548 -0.608540
H 1.000719 2.124774 -0.209267
H 1.916081 1.299995 1.080770
H 1.916092 -1.299989 1.080767
H 1.000742 -2.124772 -0.209277
H 2.498215 -1.259528 -0.608541
H -0.466019 -0.000011 1.381035
H -1.467590 0.000006 -1.501179