24

C 4.061775 -0.096541 -1.363043
S 2.939503 -0.452893 -0.000103
C 4.061595 -0.097176 1.363150
C 1.829341 0.742631 0.000082
C 0.441148 0.462729 0.000045
C -0.487148 1.549230 0.000193
C -1.848362 1.326309 0.000168
C -2.345714 0.002990 -0.000009
C -1.449395 -1.084794 -0.000159
C -0.083807 -0.861599 -0.000133
N -3.779040 -0.234985 -0.000035
O -4.529505 0.733940 0.000101
O -4.173660 -1.396094 -0.000186
H 4.887840 -0.814888 -1.391796
H 3.516372 -0.180808 -2.315331
H 4.490065 0.911688 -1.341784
H 4.489866 0.911071 1.342432
H 3.516069 -0.181910 2.315326
H 4.887669 -0.815521 1.391666
H 2.113626 1.790686 0.000239
H -0.104416 2.566997 0.000329
H -2.559537 2.159137 0.000282
H -1.852353 -2.103395 -0.000296
H 0.584751 -1.717320 -0.000253