16

S -1.784236 1.542489 -0.031866
C -1.045765 0.000000 -0.000011
S -1.784226 -1.542493 0.031874
N 0.312794 0.000002 -0.000006
C 1.147299 -1.233916 0.009370
C 2.606335 -0.758343 -0.135358
C 2.606333 0.758346 0.135374
C 1.147302 1.233920 -0.009389
H 0.980463 -1.791481 0.956047
H 0.841388 -1.908149 -0.820213
H 3.267999 -1.290771 0.564206
H 2.978549 -0.968698 -1.152046
H 2.978522 0.968699 1.152072
H 3.268015 1.290774 -0.564172
H 0.980488 1.791469 -0.956080
H 0.841380 1.908172 0.820176