42

C -3.973051 -1.628658 -1.284958
C -2.750768 -1.142466 -0.489954
C -1.802095 -2.322872 -0.205245
O -2.073076 -0.213348 -1.307759
B -1.415256 0.804016 -0.413256
C 0.146110 0.468350 -0.241185
C 0.803779 0.716304 0.975034
C 2.165752 0.468776 1.113300
C 2.898439 -0.039411 0.025233
C 4.355266 -0.314820 0.131343
F 4.717334 -1.602376 -0.068720
F 5.136065 0.341591 -0.756347
F 4.957689 -0.029344 1.304672
C 2.243873 -0.301292 -1.194889
C 0.882541 -0.049194 -1.320510
C -1.657058 2.278226 -1.055530
C -1.167702 3.366924 -0.117236
H -1.149620 2.307796 -2.026886
O -2.078424 0.638415 0.930192
C -3.109184 -0.315844 0.816626
C -4.443520 0.446881 0.687985
C -3.101739 -1.148905 2.109035
H -4.659736 -2.195497 -0.657281
H -4.500944 -0.770660 -1.716369
H -3.655493 -2.254585 -2.123646
H -1.371069 -2.680014 -1.145347
H -0.958476 -1.979960 0.408581
H -2.298527 -3.148596 0.299081
H 0.212712 1.097515 1.808854
H 2.654078 0.669285 2.063711
H 2.803021 -0.701454 -2.037757
H 0.354960 -0.257969 -2.251281
H -2.737178 2.354556 -1.235958
H -1.440155 4.365416 -0.465551
H -1.600277 3.217167 0.881891
H -0.078947 3.327871 -0.001797
H -4.454869 0.997884 -0.260859
H -5.308945 -0.209422 0.736722
H -4.510490 1.196166 1.482117
H -3.428444 -0.539300 2.955782
H -3.747277 -2.022455 2.027872
H -2.079699 -1.475190 2.334202