13

C -1.342716 0.448022 0.073676
N 0.000015 0.000025 -0.404225
C 1.059363 0.938783 0.073822
C 0.283342 -1.386816 0.073705
H -1.549282 1.450889 -0.332458
H -2.110080 -0.229684 -0.332811
H -1.459918 0.486912 1.165828
H 1.152549 1.019650 1.165985
H 2.030896 0.616955 -0.333526
H 0.855514 1.942589 -0.331345
H -0.481748 -2.067151 -0.332666
H 1.254061 -1.712473 -0.332514
H 0.307966 -1.507800 1.165861