23

Br 4.237986 -0.198268 -0.000043
C 2.326883 0.095953 -0.000029
C 1.839976 1.403318 -0.000056
C 0.468377 1.614505 -0.000046
C -0.454474 0.521176 -0.000010
C -1.839557 0.768133 0.000000
H -2.186896 1.793761 -0.000022
C -2.827327 -0.225653 0.000035
O -4.122245 0.379355 -0.000025
C -5.241130 -0.538533 -0.000052
C -6.475212 0.353084 0.000270
O -2.817354 -1.455157 0.000035
C 0.099836 -0.798523 0.000016
C 1.466181 -1.009233 0.000007
H 2.522990 2.249267 -0.000083
H 0.075708 2.624033 -0.000066
H -5.168693 -1.174274 -0.899113
H -5.168478 -1.174630 0.898743
H -6.472190 1.009406 0.879361
H -6.472388 1.009770 -0.878549
H -7.394968 -0.234467 0.000253
H -0.595154 -1.641862 0.000046
H 1.866026 -2.020560 0.000027