22

C 2.203498 -0.035763 -0.780288
C 1.230153 0.073615 0.127048
C 0.641301 1.404512 0.524055
C -0.716365 1.655013 -0.149930
C -1.740178 0.536258 0.092622
C -1.410933 -0.742695 -0.690788
C -0.534078 -1.745804 0.072793
C 0.648119 -1.123778 0.835028
H 2.633678 0.804276 -1.299680
H 2.636290 -0.976812 -1.077464
H 0.528306 1.452992 1.625673
H 1.334520 2.229558 0.263306
H -1.127464 2.614847 0.218933
H -0.563419 1.788392 -1.239508
H -1.811155 0.314254 1.173913
H -2.743169 0.898329 -0.206152
H -2.351946 -1.246394 -0.985156
H -0.906461 -0.472519 -1.640988
H -1.158122 -2.312230 0.791080
H -0.146644 -2.492109 -0.649349
H 1.429141 -1.895291 0.988994
H 0.317348 -0.835436 1.853161