32

C 1.971929 0.595889 0.272122
C 3.254408 0.061711 0.445975
C 3.511491 -1.272944 0.119111
C 2.489795 -2.078108 -0.390601
C 1.205253 -1.554395 -0.561765
C 0.927863 -0.223955 -0.216823
C -0.423010 0.372066 -0.381115
N -1.488621 -0.592334 -0.566709
C -2.797081 -0.058138 -1.068986
C -3.742598 0.099297 0.141426
C -3.115566 -0.733030 1.275733
C -1.821930 -1.344360 0.694110
C -0.573999 1.712679 -0.406051
C 0.604195 2.630852 -0.289016
C 1.695065 2.034203 0.615538
H 4.057194 0.686579 0.830777
H 4.510917 -1.681435 0.256068
H 2.692803 -3.112305 -0.659180
H 0.413937 -2.182170 -0.976850
H -2.679946 0.878543 -1.642605
H -3.188443 -0.820668 -1.777641
H -3.836340 1.157506 0.436822
H -4.759133 -0.249099 -0.100906
H -2.892385 -0.098981 2.150190
H -3.802126 -1.519893 1.626423
H -1.981434 -2.403574 0.401450
H -0.987598 -1.326100 1.419523
H -1.539006 2.193985 -0.520356
H 1.017832 2.822334 -1.302875
H 0.290850 3.616557 0.105465
H 1.373240 2.088954 1.677925
H 2.615086 2.645503 0.544790