37

C 2.438950 2.121580 -0.000300
C 1.237705 1.241641 -0.000219
C 1.263762 -0.118841 -0.000091
C 2.478924 -0.935391 -0.000010
O 3.635806 -0.165174 0.000074
C 4.902932 -0.907930 0.000195
C 5.964374 0.172178 0.000072
O 2.571857 -2.144460 0.000022
C 0.000000 -0.944394 -0.000028
C -1.263762 -0.118841 -0.000043
C -2.478924 -0.935391 0.000088
O -3.635806 -0.165174 0.000121
C -4.902932 -0.907930 0.000269
C -5.964374 0.172178 0.000227
O -2.571857 -2.144460 0.000187
C -1.237706 1.241641 -0.000171
C -2.438950 2.121580 -0.000210
N 0.000000 1.927395 -0.000277
H 3.081835 1.897881 -0.874428
H 2.232932 3.196108 -0.000581
H 3.081647 1.898289 0.874066
H 4.919077 -1.543583 0.902532
H 4.919122 -1.543834 -0.901967
H 5.878638 0.819021 -0.882736
H 5.878571 0.819285 0.882679
H 6.970375 -0.265246 0.000175
H -0.000016 -1.625108 -0.884067
H 0.000016 -1.625032 0.884070
H -4.919155 -1.543798 -0.901916
H -4.919044 -1.543619 0.902582
H -5.878551 0.819240 0.882866
H -5.878658 0.819066 -0.882550
H -6.970375 -0.265246 0.000331
H -3.081666 1.898223 0.874126
H -2.232932 3.196108 -0.000402
H -3.081816 1.897947 -0.874368
H 0.000000 2.944196 -0.000374