23

C 5.145486 -0.750274 -0.130422
C 3.733231 -0.261883 -0.012434
C 2.761033 -0.681521 -0.937520
C 1.447924 -0.242864 -0.845086
C 3.350500 0.614286 1.011531
C 2.036024 1.059225 1.114800
C 1.039326 0.641907 0.190118
C -0.290043 1.115974 0.327530
H -0.436223 1.840330 1.126647
S -1.565893 0.721440 -0.537435
O -1.344356 0.086073 -1.837010
C -2.357392 -0.711772 0.429120
F -2.682485 -0.406429 1.694651
F -3.498563 -1.183129 -0.090330
F -1.583654 -1.798824 0.549332
O -2.653297 1.702880 -0.491154
H 5.571066 -0.484619 -1.105695
H 5.795415 -0.323094 0.640437
H 5.189163 -1.841917 -0.031398
H 3.041953 -1.359788 -1.739581
H 0.716820 -0.574678 -1.586880
H 4.085897 0.951923 1.736653
H 1.757197 1.734151 1.915389