21

N -0.243441 0.646953 -0.424031
C -0.208830 -0.758552 -0.126615
C -1.625941 -1.256040 0.040611
C -2.491922 0.010579 0.196340
C -1.542541 1.222602 0.039599
N 0.849559 -1.503317 -0.044102
C 2.161981 -0.831076 -0.099807
C 2.113387 0.601446 0.470107
C 1.002399 1.430498 -0.199531
H -1.928109 -1.858052 -0.837769
H -1.704563 -1.926605 0.916467
H -3.287123 0.035551 -0.568198
H -2.996224 0.028925 1.176424
H -1.447901 1.786696 0.988182
H -1.903521 1.927276 -0.737429
H 2.868162 -1.459922 0.486741
H 2.531233 -0.821875 -1.149075
H 1.944321 0.553672 1.563324
H 3.088025 1.101575 0.331268
H 1.339739 1.763434 -1.209895
H 0.801939 2.347132 0.392663