14

C -1.271161 0.727981 0.080369
C -0.120986 1.419000 0.048708
C 1.202141 0.747816 -0.184531
C 1.202140 -0.747817 0.184531
C -0.120987 -1.419000 -0.048709
C -1.271161 -0.727980 -0.080369
H -2.235632 1.207946 0.226633
H -0.087653 2.499773 0.159211
H 1.462204 0.866381 -1.259141
H 2.001128 1.266371 0.380118
H 2.001128 -1.266372 -0.380117
H 1.462203 -0.866381 1.259141
H -0.087655 -2.499773 -0.159211
H -2.235633 -1.207945 -0.226632