59

C -6.608965 -0.871414 0.000000
C -5.546275 0.225492 0.000000
C -4.126281 -0.358228 0.000000
C -3.062902 0.747773 0.000000
C -1.640069 0.161050 0.000000
C -0.584138 1.268238 0.000000
Si 1.208607 0.708522 0.000000
H 2.025342 1.931895 0.000000
C 1.651989 -0.315617 1.516410
C 1.334021 0.348316 2.859428
C 1.803813 -0.525249 4.036201
C 1.478476 0.128606 5.385528
C 1.947063 -0.741349 6.560565
C 1.625496 -0.095093 7.906457
C 1.651989 -0.315617 -1.516410
C 1.334021 0.348316 -2.859428
C 1.803813 -0.525249 -4.036201
C 1.478476 0.128606 -5.385528
C 1.947063 -0.741349 -6.560565
C 1.625496 -0.095093 -7.906457
H -6.524187 -1.514919 -0.882985
H -6.524187 -1.514919 0.882985
H -7.618208 -0.445173 0.000000
H -5.683932 0.879011 -0.883513
H -5.683932 0.879011 0.883513
H -3.990368 -1.012632 0.882291
H -3.990368 -1.012632 -0.882291
H -3.198314 1.401690 -0.882234
H -3.198314 1.401690 0.882234
H -1.514556 -0.494263 0.886118
H -1.514556 -0.494263 -0.886118
H -0.726108 1.930836 -0.886080
H -0.726108 1.930836 0.886080
H 1.135901 -1.299057 1.450661
H 2.739983 -0.551783 1.456869
H 1.818299 1.344136 2.927826
H 0.243516 0.530587 2.952029
H 1.328202 -1.522458 3.975444
H 2.892564 -0.706167 3.957206
H 1.953330 1.126643 5.445766
H 0.389361 0.309653 5.464592
H 1.471073 -1.739682 6.502296
H 3.037153 -0.921414 6.483573
H 0.548211 0.062949 8.030745
H 1.963355 -0.723034 8.738205
H 2.113441 0.880463 8.012156
H 2.739983 -0.551783 -1.456869
H 1.135901 -1.299057 -1.450661
H 0.243516 0.530587 -2.952029
H 1.818299 1.344136 -2.927826
H 2.892564 -0.706167 -3.957206
H 1.328202 -1.522458 -3.975444
H 0.389361 0.309653 -5.464592
H 1.953330 1.126643 -5.445766
H 3.037153 -0.921414 -6.483573
H 1.471073 -1.739682 -6.502296
H 0.548211 0.062949 -8.030745
H 2.113441 0.880463 -8.012156
H 1.963355 -0.723034 -8.738205