34

O 2.423907 1.444158 -1.079091
C 1.649740 1.089060 -0.213884
C 0.967919 -0.179632 -0.002588
C -0.444514 -0.261376 0.009499
C -1.259799 0.915425 -0.102471
C -2.631257 0.843219 -0.120832
C -3.286356 -0.412097 -0.027851
N -4.715214 -0.487559 -0.050507
O -5.369284 0.553296 -0.157597
O -5.261211 -1.589741 0.037451
C -2.502753 -1.590756 0.091320
C -1.132133 -1.515812 0.110057
C 1.799872 -1.335601 0.168954
O 3.108313 -0.952798 0.510167
C 4.116410 -1.991497 0.563958
C 4.594232 -2.308889 -0.844141
O 1.556657 -2.530794 0.104835
O 1.279067 2.015965 0.770037
C 1.840025 3.349352 0.688347
C 1.076399 4.175747 -0.334822
H -0.765835 1.886321 -0.145977
H -3.242859 1.745244 -0.204711
H -3.016244 -2.553023 0.165333
H -0.534111 -2.430438 0.191820
H 4.894118 -1.512593 1.183205
H 3.695675 -2.877476 1.072840
H 5.490799 -2.930466 -0.843886
H 3.806618 -2.833006 -1.405506
H 4.804828 -1.382456 -1.396280
H 1.702750 3.712912 1.721227
H 2.913800 3.271677 0.439190
H 1.417853 5.213074 -0.355125
H 1.212761 3.751659 -1.341706
H 0.000046 4.167934 -0.126574