10

N -2.137088 -0.086218 -0.000002
C -0.947581 0.777787 -0.000024
C 0.411739 0.045468 -0.000001
F 0.623369 -0.758209 -1.056050
F 1.477537 0.862529 -0.000025
F 0.623366 -0.758144 1.056098
H -2.174535 -0.680310 0.823175
H -2.174515 -0.680380 -0.823129
H -0.997362 1.454526 -0.891506
H -0.997364 1.454577 0.891419