36

O -2.734007 1.079511 -0.271837
C -1.568802 0.935246 0.081186
C -0.739504 -0.218263 0.119293
C 0.713187 -0.175659 0.126132
C 1.425632 0.835708 0.813048
C 2.816960 0.873657 0.812323
C 3.516922 -0.128066 0.121935
O 4.905851 0.030035 0.202453
C 5.713996 -0.967392 -0.451186
C 2.857512 -1.153019 -0.558018
C 1.460168 -1.164457 -0.550006
C -1.385654 -1.493982 0.103003
O -2.579583 -1.450942 0.848559
C -3.614995 -2.403355 0.515409
C -4.454320 -1.799258 -0.602535
O -1.068474 -2.569468 -0.388479
O -0.890988 2.120734 0.470244
C -1.599610 3.368082 0.308430
C -1.482468 3.843303 -1.134006
H 0.866878 1.604034 1.353790
H 3.361426 1.652437 1.333140
H 6.731163 -0.625857 -0.233637
H 5.527679 -1.953332 -0.014946
H 5.520013 -0.967005 -1.527862
H 3.394927 -1.929125 -1.085826
H 0.925586 -1.963746 -1.073162
H -3.156264 -3.368319 0.238051
H -4.168156 -2.492484 1.464417
H -4.118863 -2.133194 -1.588449
H -5.516867 -2.008346 -0.495152
H -4.309235 -0.696550 -0.588975
H -2.653980 3.229734 0.611163
H -1.070287 4.026310 1.017256
H -0.437195 3.821642 -1.464264
H -2.035823 3.158974 -1.795124
H -1.877538 4.850605 -1.267979