17

H 0.000000 -1.561251 -1.221300
N 0.000000 -1.481683 -0.197493
C 1.230419 -0.757391 0.234544
C 1.268407 0.711848 -0.226979
C 0.000000 1.454647 0.216459
C -1.268407 0.711848 -0.226979
C -1.230419 -0.757391 0.234544
H 1.287361 -0.810008 1.343776
H 2.111024 -1.311089 -0.153067
H 2.164380 1.212748 0.182029
H 1.368452 0.760864 -1.327157
H 0.000000 1.565799 1.318249
H 0.000000 2.480828 -0.195185
H -2.164380 1.212748 0.182029
H -1.368452 0.760865 -1.327157
H -2.111025 -1.311088 -0.153067
H -1.287361 -0.810008 1.343776