29

C -3.241204 1.403022 -0.385154
C -4.406067 0.649756 -0.176766
C -4.289851 -0.712000 0.119240
C -3.039148 -1.318466 0.207891
C -1.852796 -0.569556 -0.000024
C -1.987795 0.811254 -0.299294
C -0.569809 -1.227555 0.102756
H -0.583341 -2.287402 0.345932
N 0.545544 -0.521016 -0.104604
C 1.777469 -1.033108 -0.028626
C 2.091592 -2.471936 0.284543
C 2.938904 -0.207664 -0.293474
O 2.917587 1.185891 -0.481641
C 1.779021 2.030513 -0.225707
C 1.563244 2.196462 1.271831
O 4.093514 -0.609823 -0.405472
H -3.323505 2.461973 -0.616336
H -5.378604 1.116757 -0.244927
H -5.186458 -1.304500 0.281921
H -2.963491 -2.375365 0.437252
H -1.081803 1.395373 -0.460382
H 1.612166 -3.137993 -0.442066
H 1.731131 -2.736260 1.284705
H 3.172391 -2.664390 0.250611
H 0.884347 1.630552 -0.740203
H 2.106503 2.971419 -0.705714
H 1.190870 1.254560 1.705566
H 0.828117 2.973178 1.490162
H 2.502703 2.436323 1.779315