17

H -2.483786 1.325205 0.222785
C -2.481317 0.250228 0.378041
H -3.407448 -0.133999 0.805810
N -1.543913 -0.606822 0.118009
N -0.413137 -0.283072 -0.573502
C 0.707357 -1.247782 -0.284577
C 1.796783 -0.472981 0.480608
C 1.480637 1.023093 0.296048
C 0.173420 1.102671 -0.516495
H 0.351987 -2.138607 0.271219
H 1.076342 -1.600890 -1.270936
H 1.792190 -0.743985 1.550749
H 2.801109 -0.721826 0.100582
H 1.369032 1.522533 1.273578
H 2.300714 1.542500 -0.227227
H 0.370776 1.405503 -1.566658
H -0.532847 1.841456 -0.093207