13

C 2.796369 -0.482236 0.000042
O 1.847390 0.616504 0.000040
C 0.524598 0.272229 0.000009
C -0.063391 -0.960430 -0.000025
S -1.787986 -0.759091 -0.000035
C -1.694591 0.983992 -0.000020
C -0.402050 1.396446 0.000012
H 2.675313 -1.083460 0.905632
H 2.675357 -1.083424 -0.905577
H 3.756845 0.047815 0.000076
H 0.388933 -1.931016 -0.000031
H -2.587455 1.586646 -0.000021
H -0.045948 2.416860 0.000037