15

C 1.232242 0.720550 0.196325
C 1.199681 -0.763658 -0.202692
O 0.000000 -1.393086 0.294289
C -1.199681 -0.763657 -0.202692
C -1.232241 0.720550 0.196325
N 0.000000 1.388423 -0.327628
H 1.340756 0.807538 1.298803
H 2.111323 1.219688 -0.265045
H 1.244224 -0.892055 -1.298485
H 1.994986 -1.349496 0.289049
H -1.244224 -0.892055 -1.298485
H -1.994987 -1.349496 0.289049
H -2.111323 1.219688 -0.265045
H -1.340756 0.807538 1.298803
H 0.000000 2.371667 -0.033157