26

O -0.179124 -1.746752 -0.447192
C -0.469945 -0.590340 -0.153114
C -1.914709 -0.184034 -0.066460
C -2.811325 -1.023385 0.609005
C -4.161665 -0.673654 0.696585
C -4.619427 0.505015 0.098422
C -3.727261 1.334230 -0.589719
C -2.374293 0.992282 -0.672202
C 0.492409 0.440849 0.145777
H 0.099836 1.408528 0.451390
N 1.848101 0.276834 0.099861
C 2.447662 -0.919921 -0.262689
C 3.833482 -1.049620 -0.304481
C 4.659145 0.030198 0.021292
C 4.058541 1.236515 0.388667
C 2.670037 1.352081 0.425561
H -2.448909 -1.951423 1.054467
H -4.857255 -1.322768 1.225165
H -5.671983 0.775103 0.164602
H -4.086595 2.245578 -1.063336
H -1.681622 1.633832 -1.215818
H 1.779530 -1.772151 -0.516178
H 4.264021 -2.010465 -0.595923
H 5.741577 -0.066930 -0.010035
H 4.668814 2.102677 0.651260
H 2.192962 2.292912 0.713057