23

C -3.287792 -0.267583 0.114182
C -1.937121 0.040646 -0.517491
C -0.781935 -0.526151 0.308552
O 0.193099 -1.081367 -0.600853
C 1.465046 -0.397208 -0.470833
H 1.742175 -0.143565 -1.515155
C 2.460032 -1.353236 0.165356
C 1.151345 0.842044 0.409565
H 1.845446 0.968459 1.267321
C 0.997407 2.127384 -0.386288
O -0.104680 0.506344 1.048133
H -3.470592 -1.346661 0.181424
H -3.362332 0.147618 1.127402
H -4.105468 0.164527 -0.475123
H -1.882166 -0.376721 -1.545020
H -1.805433 1.136345 -0.626413
H -1.050916 -1.305119 1.044829
H 2.486861 -2.301916 -0.389368
H 3.473681 -0.941696 0.179667
H 2.177033 -1.607453 1.195342
H 0.351770 1.994785 -1.263362
H 0.527928 2.904842 0.233181
H 1.962774 2.511363 -0.731232