29

O -1.460229 -1.411019 -1.748970
S -1.810199 -1.389505 -0.319806
C -0.510922 -1.410154 0.696781
H -0.699673 -1.847580 1.676855
C 0.764517 -0.950762 0.449025
C 1.755316 -0.953035 1.506943
C 3.004875 -0.429486 1.320510
C 3.379396 0.127423 0.064259
N 4.671105 0.692514 -0.118037
O 5.468087 0.694895 0.827279
O 4.972853 1.174351 -1.214778
C 2.441384 0.093589 -1.008597
C 1.188872 -0.423822 -0.827087
C -2.586092 0.182504 -0.055989
C -1.882804 1.365261 -0.274026
C -2.509995 2.601348 -0.069024
C -3.842403 2.644089 0.352975
C -4.548476 1.456116 0.570062
C -3.915302 0.224675 0.362973
O -2.825459 -2.378768 0.098781
H 1.472332 -1.380858 2.462351
H 3.743790 -0.422112 2.126282
H 2.755010 0.490638 -1.978220
H 0.494630 -0.494946 -1.672007
H -0.839582 1.337541 -0.603526
H -1.959228 3.522250 -0.238112
H -4.330409 3.602638 0.512464
H -5.583241 1.486916 0.896517
H -4.460398 -0.712137 0.529213