29

C 3.026971 0.000000 0.453323
C 1.757664 0.000000 1.276244
Sn 0.000000 0.000000 0.000000
C 0.000000 1.757664 -1.276244
C 0.000000 3.026971 -0.453323
C 0.000000 -1.757664 -1.276244
C 0.000000 -3.026971 -0.453323
C -1.757664 0.000000 1.276244
C -3.026971 0.000000 0.453323
H 3.915504 0.000000 1.099613
H 3.101780 -0.886040 -0.188993
H 3.101780 0.886040 -0.188993
H 1.702889 -0.880376 1.925686
H 1.702889 0.880376 1.925686
H 0.880376 1.702889 -1.925686
H -0.880376 1.702889 -1.925686
H 0.000000 3.915504 -1.099613
H -0.886040 3.101780 0.188993
H 0.886040 3.101780 0.188993
H -0.880376 -1.702889 -1.925686
H 0.880376 -1.702889 -1.925686
H 0.886040 -3.101780 0.188993
H -0.886040 -3.101780 0.188993
H 0.000000 -3.915504 -1.099613
H -1.702889 -0.880376 1.925686
H -1.702889 0.880376 1.925686
H -3.101780 -0.886040 -0.188993
H -3.915504 0.000000 1.099613
H -3.101780 0.886040 -0.188993