18

C 2.724673 0.048455 -0.002330
C 1.286383 -0.007048 -0.510045
C 0.275589 -0.060419 0.646888
C -1.138447 -0.115471 0.123613
C -1.799394 1.211127 -0.092329
C -1.756653 -1.272780 -0.125695
H 2.902084 0.935664 0.615925
H 2.972771 -0.829051 0.605778
H 3.436580 0.081081 -0.834947
H 1.078064 0.873087 -1.149288
H 1.149228 -0.893089 -1.161730
H 0.484584 -0.942403 1.285433
H 0.412341 0.816727 1.309181
H -1.156076 1.892344 -0.664881
H -2.747742 1.124376 -0.637900
H -2.021325 1.699060 0.866626
H -1.299095 -2.236954 0.025981
H -2.764315 -1.344023 -0.500786