31

C -0.166977 2.500870 0.181463
N -0.182994 1.108102 -0.344627
C -1.364743 0.335277 -0.149391
C -1.329843 -1.055232 -0.416765
C -2.500122 -1.805270 -0.349309
C -3.718807 -1.203756 -0.012303
C -3.754427 0.166951 0.253605
C -2.593551 0.939649 0.194209
C 1.099281 0.429544 -0.156755
C 1.920401 0.319820 -1.211939
C 3.257060 -0.352259 -1.131008
C 3.736193 -0.555426 0.315061
C 2.595423 -1.067013 1.204359
C 1.426002 -0.072342 1.226393
H -0.326628 2.563431 1.269057
H 0.801674 2.971327 -0.057262
H -0.949750 3.089110 -0.328205
H -0.393310 -1.535534 -0.692328
H -2.466333 -2.873505 -0.561768
H -4.626073 -1.797117 0.038961
H -4.699468 0.642999 0.513858
H -2.653855 2.002735 0.403353
H 1.641237 0.701461 -2.194075
H 3.190278 -1.333688 -1.648139
H 4.009028 0.235606 -1.695092
H 4.584293 -1.263758 0.336719
H 4.122274 0.401118 0.716933
H 2.241644 -2.047843 0.830563
H 2.960302 -1.242081 2.233045
H 1.674164 0.793215 1.874338
H 0.536145 -0.549061 1.686714