16

N 2.894069 0.173162 0.227831
C 1.692439 -0.682589 0.236659
C 0.418298 0.043267 -0.165490
O -0.621420 -0.847917 -0.162359
C -1.960610 -0.357436 -0.497742
C -2.546310 0.386801 0.682950
O 0.287757 1.208243 -0.459199
H 3.054074 0.560331 -0.700103
H 2.778425 0.963105 0.859849
H 1.853893 -1.556267 -0.441406
H 1.560667 -1.125527 1.254366
H -1.885486 0.270406 -1.403206
H -2.478098 -1.309395 -0.716813
H -2.484079 -0.204389 1.605637
H -2.010256 1.330870 0.864353
H -3.601230 0.635874 0.516714