28

N 0.380383 -0.002789 -0.216474
C 1.104431 -1.284523 0.069141
C 2.559647 -1.194496 -0.417791
C 3.284580 0.000407 0.211578
C 2.506266 1.288404 -0.079990
C 1.052800 1.182090 0.410624
C -1.029003 -0.063639 -0.024240
C -1.795862 -1.151844 0.208829
C -3.263134 -0.822178 0.155836
C -3.330165 0.697089 -0.145058
C -1.866133 1.185755 -0.247423
H 1.075884 -1.543770 1.149541
H 0.584951 -2.101336 -0.481059
H 3.086416 -2.136890 -0.181733
H 2.571606 -1.097100 -1.522340
H 3.387616 -0.146071 1.303360
H 4.312950 0.076775 -0.187199
H 2.995735 2.155282 0.399666
H 2.512587 1.487628 -1.170741
H 0.502097 2.101227 0.115858
H 1.029099 1.125130 1.520763
H -1.480728 -2.156930 0.404365
H -3.773711 -1.408821 -0.627820
H -3.759967 -1.066798 1.110622
H -3.873936 0.888213 -1.083490
H -3.870317 1.233693 0.650035
H -1.650219 1.962016 0.504822
H -1.653291 1.624889 -1.238372