18

O 2.903333 0.370400 -0.693323
C 2.340640 -0.643191 0.168578
C 1.139079 0.037998 0.833601
N -0.035928 -0.028371 -0.088900
C -1.192381 0.762959 0.430808
C -2.429338 0.429653 -0.419391
O -2.911230 -0.887637 -0.130648
H 3.550548 -0.026735 -1.304571
H 2.050493 -1.523235 -0.432610
H 3.106992 -0.928971 0.911044
H 0.875727 -0.495428 1.773646
H 1.424458 1.079205 1.110641
H 0.245413 0.339978 -1.008888
H -1.392159 0.462637 1.485074
H -1.015356 1.858888 0.439296
H -3.289422 1.074645 -0.159208
H -2.226299 0.499513 -1.503542
H -2.163729 -1.528521 -0.178388