42

O -2.542580 -1.915178 -0.035547
C -2.248396 -0.733392 -0.003627
C -1.019274 0.005160 0.008428
H -1.105737 1.087596 0.063031
N 0.124848 -0.694631 -0.031427
C 1.338603 -0.143979 -0.022586
C 1.615521 1.308078 0.018363
C 2.402104 1.858926 1.048867
C 2.657825 3.229939 1.089035
C 2.134017 4.075826 0.105051
C 1.348735 3.537538 -0.920330
C 1.091373 2.166824 -0.966612
C 2.482266 -1.061491 -0.055819
C 2.326829 -2.431539 0.266792
C 3.413267 -3.299217 0.238492
C 4.689346 -2.834310 -0.109167
C 4.855563 -1.486815 -0.438401
C 3.770536 -0.609559 -0.416849
O -3.307277 0.215047 0.030469
C -4.699809 -0.190295 0.035795
C -4.985965 -1.024371 1.287798
C -5.422009 1.166873 0.080272
C -5.015261 -0.957006 -1.251755
H 2.803345 1.199583 1.815542
H 3.263471 3.642873 1.890776
H 2.331864 5.140702 0.139078
H 0.935535 4.189674 -1.684958
H 0.478071 1.745387 -1.762206
H 1.331444 -2.797287 0.528420
H 3.271989 -4.347413 0.488644
H 5.532327 -3.512696 -0.125583
H 5.838071 -1.116209 -0.717777
H 3.917301 0.432201 -0.690276
H -4.656154 -0.498487 2.188790
H -6.041968 -1.270943 1.385649
H -4.408246 -1.963888 1.246240
H -5.140149 1.775285 -0.786238
H -6.504757 1.044332 0.091756
H -5.116442 1.729771 0.969410
H -4.434916 -1.895680 -1.274421
H -6.072903 -1.201440 -1.336510
H -4.708851 -0.383032 -2.131233