31

Cl 4.844100 -2.239109 -0.000078
C 3.720586 -0.927934 -0.000047
C 3.282723 -0.415123 -1.223480
C 2.376005 0.647620 -1.218491
C 1.925291 1.178585 0.000016
C 2.375925 0.647472 1.218501
C 3.282641 -0.415260 1.223425
C 0.995302 2.335249 0.000066
C 1.416166 3.606471 0.000057
N -0.413052 2.060501 0.000144
C -0.982841 0.783597 0.000050
O -0.463396 -0.301440 -0.000016
O -2.365704 1.020323 0.000058
C -3.312691 -0.014259 0.000015
C -3.027216 -1.378872 0.000235
C -4.106842 -2.269680 0.000197
C -5.422286 -1.797872 -0.000050
C -5.676472 -0.419320 -0.000269
C -4.622921 0.493635 -0.000241
H 3.636494 -0.839670 -2.162772
H 2.015358 1.060070 -2.161135
H 2.015200 1.059814 2.161161
H 3.636364 -0.839920 2.162684
H 0.775497 4.472598 0.000094
H 2.465401 3.866115 0.000015
H -1.049782 2.866520 0.000204
H -1.998363 -1.748498 0.000422
H -3.911993 -3.342591 0.000363
H -6.252546 -2.500913 -0.000072
H -6.704145 -0.056191 -0.000464
H -4.793259 1.567097 -0.000408