35

C -3.566145 1.064691 -1.527889
Si -3.388466 0.002262 0.000000
C -3.566135 1.064456 1.528055
C -4.712816 -1.321773 -0.000097
C -1.716809 -0.877496 -0.000073
C -0.426401 -0.041221 -0.000013
C 0.811116 -0.946119 -0.000090
Ge 2.529947 -0.001750 0.000000
C 2.681556 1.105083 1.585605
C 3.946846 -1.328308 -0.001239
C 2.680678 1.107107 -1.584274
H -2.786387 1.840449 -1.551190
H -3.469045 0.462606 -2.442651
H -4.543727 1.566140 -1.554719
H -4.543723 1.565887 1.554976
H -3.469012 0.462233 2.442722
H -2.786388 1.840221 1.551461
H -4.638451 -1.963670 -0.889028
H -4.638451 -1.963801 0.888739
H -5.712871 -0.863472 -0.000063
H -1.724250 -1.552077 0.887368
H -1.724255 -1.551940 -0.887618
H -0.411029 0.624444 -0.886907
H -0.411022 0.624306 0.886983
H 0.780139 -1.615168 0.878748
H 0.780141 -1.615019 -0.879042
H 2.582750 0.511926 2.498078
H 3.647602 1.613809 1.627774
H 1.904794 1.873710 1.610188
H 3.893296 -1.971701 -0.882667
H 4.932942 -0.857097 -0.001277
H 3.893862 -1.972744 0.879461
H 1.904135 1.876004 -1.607258
H 3.646848 1.615590 -1.626520
H 2.580989 0.515168 -2.497443