12

N -0.733138 1.733047 -0.031110
C -0.733138 0.241698 -0.039142
C 0.733138 -0.241698 -0.039142
N 0.733138 -1.733047 -0.031110
H -1.648818 2.089731 -0.284640
H -0.519158 2.089082 0.894700
H -1.289031 -0.208264 0.809982
H -1.232284 -0.118544 -0.967423
H 1.232284 0.118544 -0.967423
H 1.289031 0.208264 0.809982
H 1.648818 -2.089731 -0.284640
H 0.519158 -2.089082 0.894700