22

C 2.110764 -0.960291 -1.526143
Si 1.676911 -0.003415 0.000029
O 0.051991 0.263535 -0.000526
C -1.242245 0.256090 -0.000273
C -2.212499 1.230012 -0.000117
C -3.469726 0.522478 0.000124
C -3.194436 -0.817578 0.000078
O -1.802504 -1.042676 -0.000159
C 2.110631 -0.954683 1.529744
C 2.487668 1.664850 -0.002989
H 1.838845 -0.412451 -2.441249
H 3.196127 -1.151405 -1.550272
H 1.591089 -1.931195 -1.550485
H -2.078144 2.290721 -0.000162
H -4.433485 0.995278 0.000293
H -3.756215 -1.722020 0.000177
H 3.195811 -1.146831 1.553986
H 1.839827 -0.402919 2.442819
H 1.589984 -1.924950 1.558257
H 2.210570 2.248950 -0.893646
H 2.208851 2.253040 0.884433
H 3.583150 1.539442 -0.001631