18

F 0.001012 -2.888602 0.000000
C 0.000175 -1.550581 0.000000
S -0.000138 -0.757681 1.429681
C -0.000168 0.878561 0.699527
C -0.000168 0.878561 -0.699527
C 0.000012 2.067611 -1.406531
C 0.000199 3.284132 -0.697420
C 0.000199 3.284132 0.697420
C 0.000012 2.067611 1.406531
S -0.000138 -0.757681 -1.429681
O 1.220762 -0.868655 -2.237846
O -1.221215 -0.869061 -2.237482
O -1.221215 -0.869061 2.237482
O 1.220762 -0.868655 2.237846
H 0.000028 2.069661 -2.496334
H 0.000462 4.223597 -1.242985
H 0.000462 4.223597 1.242985
H 0.000028 2.069661 2.496334