17

C -1.415168 0.000004 1.524397
C -1.120726 0.000002 0.021885
O -0.392372 -1.181417 -0.311942
C 1.027091 -1.232935 -0.074618
C 1.664689 -0.000003 0.104414
H 2.721729 -0.000006 0.323596
O 1.437242 -2.380132 -0.093705
C -2.358661 0.000004 -0.871825
O -0.392366 1.181417 -0.311940
C 1.027090 1.232934 -0.074579
O 1.437254 2.380125 -0.093723
H -0.471891 0.000004 2.087692
H -1.972897 0.893262 1.813337
H -1.972899 -0.893251 1.813339
H -2.961052 0.895474 -0.700336
H -2.045887 0.000003 -1.924865
H -2.961056 -0.895464 -0.700336