58

C -3.350136 0.067024 -2.851716
O -2.243669 0.242747 -1.933448
C -2.392854 1.147096 -0.907755
C -3.515324 1.941738 -0.633250
C -3.431676 2.803904 0.464999
C -2.286007 2.885384 1.256416
C -1.173736 2.067730 0.947247
O 0.007994 2.083156 1.645014
C 0.138744 3.006504 2.751951
C -1.224507 1.190522 -0.134104
P 0.000107 0.000056 -0.882948
C 1.643352 0.465199 -0.133959
C 2.377713 -0.017802 0.947197
O 1.800261 -1.049254 1.644491
C 2.533609 -1.623193 2.752545
C 3.642031 0.536387 1.256402
C 4.144265 1.569654 0.465380
C 3.439328 2.073699 -0.632541
C 2.189893 1.499010 -0.907218
O 1.332002 1.822433 -1.932704
C 1.733300 2.868309 -2.851061
C -0.418748 -1.655712 -0.134191
C 0.203374 -2.645715 -0.907684
O 0.912228 -2.064224 -1.933146
C 1.618488 -2.934422 -2.850920
C 0.076442 -4.015172 -0.633323
C -0.712381 -4.373960 0.464614
C -1.356180 -3.422614 1.255853
C -1.204243 -2.050519 0.946808
O -1.808855 -1.034889 1.644342
C -2.674673 -1.383434 2.750636
H -3.562215 1.003836 -3.372385
H -2.947727 -0.687079 -3.540510
H -4.225249 -0.313053 -2.318976
H -4.409959 1.897237 -1.236075
H -4.288878 3.433639 0.707944
H -2.259603 3.567753 2.094334
H 1.169057 2.810299 3.077880
H 0.027648 4.037494 2.405375
H -0.577602 2.759199 3.539507
H 3.481971 -2.043349 2.406903
H 2.677604 -0.878362 3.539340
H 1.847940 -2.416632 3.079026
H 4.220011 0.171805 2.093936
H 5.118304 1.996935 0.708401
H 3.847923 2.871124 -1.234966
H 2.650853 2.583601 -3.371387
H 0.879273 2.896671 -3.540181
H 1.841437 3.816353 -2.318489
H 0.913687 -3.586465 -3.372257
H 2.070875 -2.208754 -3.539249
H 2.384809 -3.502285 -2.317651
H 0.562569 -4.767586 -1.236076
H -0.829118 -5.431201 0.707516
H -1.960550 -3.741060 2.093568
H -3.020475 -0.393110 3.076136
H -3.511526 -1.995455 2.403499
H -2.102781 -1.879867 3.538696