28

O -1.049225 -1.447416 -1.703462
S -1.381130 -1.401212 -0.267069
C -0.089950 -1.334241 0.736460
H -0.244463 -1.753170 1.728307
C 1.170700 -0.817919 0.467159
C 2.155657 -0.733064 1.514982
C 3.392072 -0.169080 1.296180
C 3.742394 0.341310 0.024022
C 5.008458 0.933787 -0.190430
N 6.048486 1.422766 -0.363081
C 2.803400 0.235627 -1.030922
C 1.563549 -0.322735 -0.822664
C -2.236407 0.144312 -0.057603
C -1.570380 1.353575 -0.241162
C -2.258620 2.564151 -0.082715
C -3.614406 2.554094 0.259158
C -4.282656 1.339000 0.443372
C -3.588067 0.133705 0.282847
O -2.363620 -2.417180 0.177434
H 1.895796 -1.124966 2.491162
H 4.118537 -0.107558 2.105617
H 3.079475 0.602661 -2.019275
H 0.869457 -0.443533 -1.660645
H -0.508572 1.366413 -0.505681
H -1.736948 3.505670 -0.225297
H -4.149845 3.492041 0.382101
H -5.334855 1.328477 0.708496
H -4.101598 -0.824380 0.426025