49

C 5.074772 -2.219209 -0.478678
C 3.559607 -1.952280 -0.401865
C 2.776006 -3.115391 -1.021211
C 3.135818 -1.764872 1.079964
O 1.781440 -1.411451 1.186773
B 1.327387 -0.241830 0.374489
C -0.255897 -0.482814 0.219843
C -0.933861 -0.109801 -0.950613
C -2.306521 -0.308206 -1.072063
C -3.025013 -0.893612 -0.014479
C -4.492249 -1.122171 -0.105178
F -4.882124 -2.413791 -0.011579
F -5.231863 -0.530723 0.859669
F -5.115952 -0.717687 -1.230921
C -2.349171 -1.280083 1.158768
C -0.977839 -1.073356 1.269870
C 1.612441 1.174343 1.178031
C 3.097694 1.486693 1.329706
C 0.903318 2.294853 0.484554
C -0.010275 3.106476 1.181133
C -0.650210 4.171816 0.540287
C -0.388742 4.447343 -0.803530
C 0.507743 3.634456 -1.511156
C 1.144407 2.570699 -0.876977
O 1.866465 -0.293939 -1.015330
C 3.223001 -0.635025 -1.151208
H 5.397926 -2.339495 -1.516203
H 5.648428 -1.397686 -0.041201
H 5.337169 -3.135148 0.057583
H 2.948307 -4.054604 -0.494885
H 1.697672 -2.878848 -0.941379
H 3.007679 -3.252226 -2.077781
H 3.213151 -2.709659 1.647140
H 3.758211 -0.988513 1.573936
H -0.358327 0.335352 -1.764123
H -2.812100 -0.006538 -1.986173
H -2.896819 -1.741107 1.977582
H -0.434901 -1.384914 2.162635
H 1.174295 0.981162 2.181049
H 3.582680 1.570406 0.347386
H 3.262172 2.419757 1.874316
H 3.599697 0.671804 1.872383
H -0.229048 2.894531 2.223574
H -1.357502 4.784479 1.091786
H -0.883175 5.273592 -1.299864
H 0.699287 3.831016 -2.562100
H 1.810218 1.901006 -1.430540
H 3.851107 0.201543 -0.782845
H 3.362967 -0.742973 -2.241970