43

C -0.784769 -0.979584 4.160447
C 0.146222 0.012018 3.564285
O 0.068419 0.016606 2.193815
Si 0.036805 0.011462 0.613929
C -1.181854 1.305428 0.038764
C -1.956366 1.155561 -1.123875
F -1.841722 0.060763 -1.870619
C -2.871202 2.133043 -1.555896
F -3.583608 1.942365 -2.661845
C -3.028288 3.312620 -0.814915
F -3.886468 4.242101 -1.209835
C -2.267514 3.499029 0.347643
F -2.403018 4.613045 1.060255
C -1.362387 2.501782 0.753343
F -0.660748 2.726227 1.860173
C 1.758473 0.400205 0.002801
C 2.021111 1.217037 -1.108204
F 1.021503 1.759675 -1.796865
C 3.327625 1.502505 -1.547177
F 3.522879 2.284725 -2.604100
C 4.424085 0.957475 -0.865805
F 5.659717 1.217909 -1.267914
C 4.199956 0.132928 0.246057
F 5.229204 -0.393462 0.902336
C 2.882676 -0.132283 0.659509
F 2.720853 -0.926565 1.713930
C -0.528021 -1.680211 0.048965
C 0.219385 -2.518734 -0.792056
F 1.408825 -2.135803 -1.245531
C -0.236755 -3.787861 -1.197995
F 0.511978 -4.544243 -1.994235
C -1.484200 -4.251099 -0.760708
F -1.925917 -5.443536 -1.133884
C -2.261392 -3.438094 0.077393
F -3.448423 -3.860938 0.500930
C -1.777339 -2.176702 0.463678
F -2.557326 -1.440542 1.251829
C 0.995514 0.850442 4.155277
H -0.675291 -1.973596 3.698237
H -0.616862 -1.099237 5.240906
H -1.836005 -0.677576 4.022390
H 1.629841 1.539419 3.616952
H 1.116386 0.909152 5.225175