36

O 0.000037 -1.544693 -0.000004
C 0.000015 -0.286480 -0.000012
C -1.250296 0.466435 0.000027
C -2.555346 -0.312563 0.000042
C -3.809596 0.604025 -0.000022
C -2.620446 -1.203210 -1.263012
C -2.620498 -1.203098 1.263174
C -1.208458 1.847895 0.000025
C -0.000005 2.558424 0.000005
C 1.208458 1.847911 -0.000012
C 1.250311 0.466452 -0.000018
C 2.555349 -0.312555 -0.000041
C 3.809628 0.603997 -0.000050
C 2.620451 -1.203163 1.263037
C 2.620417 -1.203142 -1.263135
H -3.821649 1.243278 -0.885657
H -4.722946 0.007581 -0.000011
H -3.821679 1.243359 0.885554
H -1.751043 -1.886286 -1.252840
H -3.528310 -1.800202 -1.300858
H -2.544061 -0.600703 -2.168725
H -2.544137 -0.600512 2.168836
H -3.528371 -1.800074 1.301043
H -1.751103 -1.886187 1.253093
H -2.129897 2.428382 0.000040
H -0.000011 3.634758 0.000006
H 2.129888 2.428412 -0.000024
H 3.821728 1.243284 0.885560
H 4.722961 0.007527 -0.000066
H 3.821706 1.243297 -0.885651
H 1.751011 -1.886192 1.252917
H 3.528286 -1.800200 1.300870
H 2.544128 -0.600622 2.168733
H 2.544073 -0.600586 -2.168818
H 3.528250 -1.800180 -1.301000
H 1.750976 -1.886169 -1.253004