28

C 3.808602 1.214643 -0.174358
C 3.167091 0.082244 0.125104
C 1.797553 0.082769 0.759368
C 0.699041 0.078403 -0.314940
C -0.699041 0.078405 0.314940
C -1.797553 0.082767 -0.759367
C -3.167090 0.082244 -0.125103
C -3.755263 -1.269362 0.139949
C -3.808601 1.214644 0.174357
C 3.755261 -1.269363 -0.139948
H 4.785357 1.246435 -0.628426
H 3.402882 2.195954 0.011451
H 1.679052 -0.792079 1.428461
H 1.678681 0.969756 1.414502
H 0.821365 0.962228 -0.972003
H 0.820725 -0.803778 -0.972474
H -0.820725 -0.803773 0.972478
H -0.821364 0.962233 0.971999
H -1.678680 0.969751 -1.414505
H -1.679051 -0.792083 -1.428458
H -3.041972 -1.924137 0.657798
H -4.659768 -1.219911 0.759712
H -4.034034 -1.766652 -0.799235
H -3.402880 2.195954 -0.011454
H -4.785355 1.246437 0.628425
H 4.033980 -1.766678 0.799238
H 3.041987 -1.924116 -0.657847
H 4.659797 -1.219910 -0.759666