12

C 0.000000 1.513540 -0.533432
C 0.000000 0.669300 0.696448
C 0.000000 -0.669300 0.696448
C 0.000000 -1.513540 -0.533432
H 0.883471 1.311524 -1.155900
H -0.883471 1.311524 -1.155900
H 0.000000 2.584858 -0.301125
H 0.000000 1.224482 1.634832
H 0.000000 -1.224482 1.634832
H 0.883471 -1.311524 -1.155900
H 0.000000 -2.584858 -0.301125
H -0.883471 -1.311524 -1.155900