48

C 3.879142 3.860406 -0.386498
O 2.859601 2.867731 -0.652366
C 3.037379 1.598924 -0.144332
C 4.140820 1.203905 0.670679
C 4.205142 -0.091370 1.115393
C 3.177837 -1.031919 0.771532
N 3.316232 -2.332833 1.246260
C 2.381512 -3.218205 0.924665
C 1.233146 -2.892370 0.129677
C 1.071103 -1.609831 -0.335173
C -0.143630 -1.249911 -1.162641
H 0.054261 -0.375312 -1.828087
O -0.359575 -2.392884 -2.015670
C -1.405671 -1.031347 -0.283945
H -1.641176 -2.014037 0.203459
C -1.227090 0.052499 0.806479
C -2.417456 1.035858 0.731419
H -2.358201 1.776744 1.555737
C -2.361692 1.751306 -0.636018
C -2.412232 0.685093 -1.753476
N -2.566234 -0.700788 -1.191859
C -3.824301 -0.742545 -0.371527
C -3.734642 0.213743 0.854456
H -3.666586 -0.405401 1.781899
C -4.937574 1.111794 0.933302
C -5.756679 1.154401 1.981842
C 2.074442 -0.620615 -0.033534
C 2.025440 0.721540 -0.495264
H 3.480550 4.735217 -0.917940
H 3.950925 4.055004 0.687183
H 4.836576 3.548475 -0.813515
H 4.916988 1.918389 0.929518
H 5.033795 -0.441600 1.736854
H 2.511013 -4.242498 1.295703
H 0.508018 -3.669820 -0.118725
H -1.254144 -2.332833 -2.430714
H -1.166255 -0.415047 1.803984
H -0.277781 0.605261 0.684740
H -3.198636 2.463306 -0.734200
H -1.440562 2.354835 -0.712282
H -3.259200 0.870664 -2.444505
H -1.491237 0.714116 -2.371614
H -4.678786 -0.483689 -1.029310
H -3.994816 -1.786122 -0.040186
H -5.100335 1.740104 0.055138
H -6.620687 1.801419 2.030994
H -5.634025 0.552106 2.870173
H 1.210126 1.059165 -1.133048