12

C -2.259184 0.108687 0.000010
C -0.797142 0.252486 0.000006
C -0.013509 1.365151 0.000003
C 1.404774 1.072038 -0.000024
C 1.691096 -0.255449 0.000008
S 0.214978 -1.185923 -0.000002
H -2.619730 -0.438610 -0.886415
H -2.619733 -0.438449 0.886533
H -2.769154 1.085219 -0.000080
H -0.377751 2.381944 -0.000005
H 2.139657 1.866190 -0.000037
H 2.650858 -0.738994 0.000009