15

N -1.617088 1.068765 -0.000036
H -1.971665 2.004901 -0.000110
C -2.366340 -0.139045 -0.000051
N -1.577575 -1.222622 -0.000041
C -0.250596 -0.743519 -0.000008
C 0.974396 -1.438218 0.000027
C 2.139688 -0.691005 0.000057
C 2.117672 0.729182 0.000054
C 0.931034 1.443641 0.000019
C -0.260284 0.696760 -0.000014
H -3.447936 -0.143652 -0.000068
H 0.979903 -2.527006 0.000030
H 3.105647 -1.194385 0.000083
H 3.068392 1.262214 0.000078
H 0.914881 2.528152 0.000018