38

O 0.053158 3.253459 -0.803079
C -0.155053 2.288059 -0.104370
C 0.870535 1.247303 0.403588
H 1.676463 1.770167 0.976554
C 1.487878 0.493308 -0.786851
C 2.766121 -0.194807 -0.393035
C 2.723168 -1.385366 0.349485
C 3.909169 -2.028635 0.709276
C 5.144392 -1.489847 0.332621
C 5.189243 -0.302254 -0.403598
C 4.005102 0.346642 -0.765888
N 0.099759 0.302676 1.281876
C -1.363013 0.611099 1.123303
H -1.897300 0.663439 2.111219
C -1.990822 -0.442735 0.266943
C -1.586357 -1.259978 -0.753552
C -2.725121 -2.058617 -1.133249
C -3.766021 -1.683964 -0.321275
C -5.171749 -2.076750 -0.167334
O -3.351169 -0.674402 0.568799
N -1.396032 1.961165 0.472313
C -2.672638 2.543326 0.023692
H 0.759733 -0.255284 -1.181005
H 1.662521 1.209156 -1.619729
H 1.758876 -1.797984 0.649978
H 3.871909 -2.952408 1.283926
H 6.066795 -1.993810 0.611855
H 6.148767 0.120044 -0.696984
H 4.048477 1.271688 -1.337789
H 0.390117 0.395619 2.259618
H -0.601100 -1.310984 -1.189805
H -2.728679 -2.800733 -1.906550
H -5.673755 -1.502052 0.628686
H -5.740790 -1.914946 -1.097125
H -5.264645 -3.143773 0.093979
H -3.255310 2.877409 0.898880
H -2.474920 3.423774 -0.618363
H -3.278174 1.820628 -0.550968