23

H 0.288511 -0.474587 -1.803079
B 0.129578 -0.072360 -0.698743
O -0.661307 1.180260 -0.775790
C -1.152781 1.949257 0.179766
C -1.771282 3.181808 -0.456587
O -1.160948 1.758185 1.379978
O -0.520429 -1.005373 0.281511
C -1.421850 -1.903626 -0.066973
C -1.838961 -2.704911 1.147187
O -1.877138 -2.089583 -1.182839
O 1.357428 0.341128 0.073215
C 2.542185 -0.201075 -0.127216
C 3.552275 0.404144 0.824867
O 2.828959 -1.052524 -0.952231
H -2.263467 2.924004 -1.401925
H -2.499765 3.637111 0.219290
H -0.989166 3.914464 -0.681005
H -1.089746 -3.474442 1.362953
H -1.903629 -2.053970 2.030055
H -2.805659 -3.186642 0.979225
H 3.056836 1.055381 1.558396
H 4.083179 -0.387649 1.362230
H 4.284985 0.997803 0.270560