13

C 0.000000 1.781081 -0.622213
O 0.770860 0.876698 0.196044
C 0.000000 0.000000 1.011081
O -0.770860 -0.876698 0.196044
C 0.000000 -1.781081 -0.622213
H -0.477903 2.534607 0.009351
H 0.758906 2.232503 -1.270592
H -0.740291 1.224757 -1.207066
H 0.768498 -0.525707 1.599988
H -0.768498 0.525707 1.599988
H 0.477903 -2.534607 0.009351
H -0.758906 -2.232503 -1.270592
H 0.740291 -1.224757 -1.207066