13

C 2.366940 0.809392 0.375959
C 1.226104 -0.083431 -0.118864
O 1.515701 -1.152041 -0.664923
N 0.000000 0.505380 -0.000004
C -1.226103 -0.083435 0.118858
C -2.366944 0.809389 -0.375955
O -1.515696 -1.152041 0.664926
H 2.265948 1.819137 -0.029731
H 2.329452 0.881947 1.465450
H 3.328853 0.390674 0.075549
H -2.265949 1.819136 0.029731
H -2.329469 0.881942 -1.465446
H -3.328854 0.390672 -0.075534