17

C -0.084934 1.135741 0.316096
C -1.269638 0.673224 -0.538519
C -1.269638 -0.673224 -0.538519
C -0.084934 -1.135741 0.316096
C -0.071056 0.000000 1.394300
C 1.199949 -0.777912 -0.500339
C 1.199949 0.777912 -0.500339
H -0.126413 2.162140 0.683664
H -1.923433 1.360144 -1.032376
H -1.923432 -1.360145 -1.032376
H -0.126413 -2.162140 0.683664
H 0.817067 0.000000 2.032684
H -0.952697 0.000000 2.043581
H 2.098730 -1.185181 -0.017885
H 1.159835 -1.189866 -1.517856
H 1.159835 1.189866 -1.517856
H 2.098729 1.185181 -0.017886