18

C 3.336318 -0.917721 0.218970
C 2.177562 0.087498 0.067393
C 0.905423 -0.504759 -0.076680
H 0.840867 -1.585296 -0.067832
C -0.306818 0.173867 -0.232362
O -1.354957 -0.823124 -0.355073
C -2.700230 -0.346878 -0.488685
C -3.266391 0.024113 0.880072
O -0.692307 1.330589 -0.296601
O 2.486942 1.278412 0.089293
H 4.281747 -0.382230 0.324632
H 3.183902 -1.540332 1.100615
H 3.393558 -1.563566 -0.657272
H -2.714204 0.519841 -1.175750
H -3.220518 -1.208692 -0.937944
H -2.703990 0.883278 1.279598
H -4.321252 0.291105 0.830907
H -3.132716 -0.797854 1.589854