26

C -2.393314 -0.837542 1.539874
Si -1.774218 -0.005408 0.000023
O -0.168663 -0.054023 -0.000030
C 1.159804 -0.099264 -0.000031
C 1.922152 -1.207739 -0.000059
C 3.377610 -0.819883 -0.000043
C 3.398831 0.736142 -0.000039
C 1.924034 1.204573 -0.000030
C -2.395450 -0.889794 -1.509530
C -2.313146 1.772792 -0.030176
H -2.028686 -0.333616 2.446708
H -3.494980 -0.813376 1.549201
H -2.070342 -1.888094 1.585354
H 1.606092 -2.231540 -0.000101
H 3.895462 -1.226450 0.886254
H 3.895495 -1.226447 -0.886321
H 3.932127 1.119115 0.884098
H 3.932108 1.119117 -0.884190
H 1.676570 1.816372 -0.884304
H 1.676585 1.816416 0.884186
H -3.497008 -0.862155 -1.520578
H -2.028490 -0.419845 -2.433523
H -2.076081 -1.942403 -1.517207
H -1.947481 2.321932 0.848978
H -1.951363 2.290237 -0.929956
H -3.414774 1.812919 -0.028475