52

C 3.202681 -3.317961 -0.480713
N 2.238370 -2.218052 -0.307421
C 2.602137 -0.868379 -0.347703
O 3.722324 -0.466740 -0.580878
C 1.334078 -0.036607 -0.070759
H 1.065570 0.536793 -0.997995
C 1.543774 0.926832 1.111826
C 1.866751 2.316595 0.633871
C 0.964008 3.366513 0.855011
C 1.273945 4.658210 0.418128
C 2.480626 4.907218 -0.241895
C 3.380119 3.858778 -0.466622
C 3.076793 2.567465 -0.031881
N 0.294936 -1.059645 0.264711
C -1.075921 -0.766948 0.112388
C -1.579622 0.465645 -0.107714
C -3.017835 0.742191 -0.132209
C -3.515557 1.715655 -1.020601
C -4.881679 1.995122 -1.063840
C -5.769244 1.315444 -0.221723
C -5.280379 0.355097 0.668208
C -3.913859 0.068045 0.716884
C 0.792996 -2.459720 -0.009204
C 0.083186 -3.160667 -1.199785
C -0.820525 -4.251454 -0.608355
C -0.640405 -4.240509 0.921925
C 0.563332 -3.345258 1.240177
H 4.176420 -2.903992 -0.812339
H 3.366870 -3.857696 0.467458
H 2.851661 -4.033094 -1.242890
H 0.635552 0.928844 1.754475
H 2.353628 0.559367 1.777450
H 0.021789 3.181483 1.367755
H 0.571663 5.471123 0.593635
H 2.720361 5.912653 -0.580092
H 4.320245 4.049120 -0.981974
H 3.777242 1.745035 -0.214589
H -1.729072 -1.639413 0.264670
H -0.940395 1.331494 -0.284807
H -2.831160 2.247401 -1.678317
H -5.259130 2.746275 -1.755839
H -6.832849 1.536495 -0.257916
H -5.966622 -0.170481 1.330012
H -3.542355 -0.668217 1.424980
H -0.488292 -2.444434 -1.815296
H 0.824126 -3.599499 -1.893139
H -1.877007 -4.080881 -0.880113
H -0.556706 -5.240093 -1.023902
H -1.550922 -3.857562 1.417263
H -0.489900 -5.261644 1.311892
H 1.459955 -3.950805 1.461894
H 0.391187 -2.728312 2.141246