33

C -0.092408 2.421951 -0.376576
N 0.540823 1.207392 -0.944065
C -0.354366 -0.000010 -1.171677
N 0.540825 -1.207409 -0.944048
C -0.092402 -2.421963 -0.376543
C 1.711555 -0.717612 -0.272768
C 2.789937 -1.427254 0.235609
C 3.880285 -0.696706 0.744535
C 3.880284 0.696722 0.744525
C 2.789934 1.427260 0.235589
C 1.711553 0.717608 -0.272778
C -1.632591 -0.000004 -0.350596
C -2.870063 -0.000018 -1.007712
C -4.056925 -0.000011 -0.268119
C -4.013048 0.000011 1.129185
C -2.778610 0.000026 1.787876
C -1.591522 0.000019 1.051675
H -0.323246 2.362237 0.698234
H 0.590799 3.273830 -0.539624
H -1.027034 2.637887 -0.920401
H -0.583351 -0.000018 -2.274255
H -1.027028 -2.637908 -0.920364
H 0.590808 -3.273842 -0.539582
H -0.323238 -2.362237 0.698266
H 2.803643 -2.512467 0.234743
H 4.736532 -1.237937 1.142287
H 4.736529 1.237960 1.142270
H 2.803637 2.512473 0.234708
H -2.912744 -0.000035 -2.096483
H -5.016447 -0.000022 -0.783053
H -4.937490 0.000017 1.704131
H -2.742767 0.000044 2.876233
H -0.629836 0.000032 1.566329