27

O -3.978178 -1.212438 0.068279
O -3.440862 -0.085522 0.062662
C -2.103649 0.000903 0.139731
C -1.530840 1.380749 0.153373
C -0.265185 1.498116 -0.714988
N 0.734376 0.469407 -0.268788
H -0.350059 -0.899035 0.169050
C 1.518158 0.935157 0.924863
C 2.417512 -0.206399 1.424960
C 3.355105 -0.698115 0.315790
C 2.548581 -1.090527 -0.927690
C 1.644729 0.062258 -1.392964
O -1.390855 -1.106893 0.222599
H -2.292481 2.113491 -0.194760
H -1.311396 1.663237 1.208135
H -0.536085 1.311614 -1.779420
H 0.124983 2.537079 -0.667255
H 2.132838 1.833192 0.699536
H 0.799946 1.224293 1.722575
H 3.000851 0.138002 2.299533
H 1.791372 -1.047188 1.786631
H 4.091138 0.088206 0.061271
H 3.945189 -1.563383 0.673648
H 3.226458 -1.383511 -1.751551
H 1.931271 -1.985366 -0.707639
H 1.014215 -0.278573 -2.244084
H 2.263828 0.908076 -1.760907