13

C -0.547953 1.526198 -0.314839
S 0.152949 -0.038443 0.090185
C -1.112230 -1.110145 -0.508845
C 1.471360 -0.251049 -0.650489
O 0.116150 -0.159514 1.553289
H -1.388887 1.799324 0.334784
H 0.182095 2.339326 -0.188643
H -0.902544 1.610478 -1.344797
H -1.222998 -1.097327 -1.596358
H -0.899297 -2.158674 -0.252923
H -2.099158 -0.911450 -0.078287
H 2.372111 -0.662040 -0.236314
H 1.715235 -0.018463 -1.661693