16

N -4.228888 -0.983000 0.001273
C -3.359436 -0.204254 0.000370
C -2.347837 0.755168 0.000300
H -2.678265 1.787141 0.000408
C -0.990175 0.464558 0.000097
C -0.014632 1.527745 0.000016
C 1.333135 1.259228 -0.000193
C 1.813373 -0.073793 -0.000337
C 3.199463 -0.339790 -0.000552
N 4.342248 -0.556395 -0.000729
C 0.871181 -1.134650 -0.000264
C -0.478768 -0.883483 -0.000054
H -0.374511 2.548669 0.000123
H 2.055708 2.074382 -0.000250
H 1.239979 -2.159698 -0.000380
H -1.194266 -1.699101 -0.000004