49

O 3.648163 1.963254 0.859386
C 3.642741 0.870916 0.325501
N 2.481861 0.368186 -0.304512
C 2.429475 -0.996886 -0.893632
C 1.249404 -1.778873 -0.286635
N 0.000012 -1.060295 -0.672270
C -1.249372 -1.778887 -0.286634
C -2.429454 -0.996915 -0.893632
N -2.481853 0.368160 -0.304517
C -3.642734 0.870897 0.325490
O -3.648149 1.963244 0.859358
C -4.864562 0.001641 0.257810
C -5.214074 -0.779264 1.366312
C -6.384627 -1.542581 1.328230
C -7.201105 -1.518741 0.192448
C -6.851438 -0.729074 -0.908335
C -5.681825 0.035758 -0.878979
C -1.221436 1.060158 -0.263064
C -1.165406 2.467454 -0.142504
N -0.000017 3.150683 -0.091956
C 1.165383 2.467471 -0.142504
C 1.221434 1.060173 -0.263059
C 0.000004 0.333974 -0.352474
C 4.864561 0.001650 0.257814
C 5.214063 -0.779270 1.366309
C 6.384607 -1.542600 1.328221
C 7.201086 -1.518757 0.192440
C 6.851428 -0.729077 -0.908337
C 5.681823 0.035768 -0.878974
H 2.297229 -0.899290 -1.998650
H 3.378654 -1.549120 -0.725411
H 1.212023 -2.804511 -0.714095
H 1.369586 -1.880442 0.814009
H -1.211980 -2.804525 -0.714094
H -1.369553 -1.880457 0.814009
H -2.297207 -0.899320 -1.998650
H -3.378625 -1.549163 -0.725413
H -4.584908 -0.780471 2.256640
H -6.664715 -2.149454 2.188410
H -8.115296 -2.111269 0.167671
H -7.494360 -0.703638 -1.787456
H -5.412156 0.662123 -1.729751
H -2.085166 3.071766 -0.065368
H 2.085132 3.071801 -0.065372
H 4.584895 -0.780479 2.256636
H 6.664687 -2.149484 2.188395
H 8.115270 -2.111296 0.167658
H 7.494350 -0.703640 -1.787457
H 5.412161 0.662142 -1.729740