13

N -0.392556 1.647345 0.051625
C -0.182670 0.206955 0.392899
C -1.189104 -0.668239 -0.352646
O -2.551324 -0.375810 0.036308
C 1.292323 -0.262958 0.051132
O 1.511269 -1.479435 0.139181
O 2.064851 0.661928 -0.260818
H 0.323577 2.185098 0.547825
H -0.152400 1.778624 -0.933216
H -0.325180 0.083731 1.491569
H -1.129730 -0.539417 -1.446348
H -1.057846 -1.735204 -0.091434
H -2.632192 0.587735 0.204544