17

N -2.840323 0.000051 0.091148
C -1.421347 -0.000001 -0.003990
C -0.715009 1.220606 -0.007185
C 0.678380 1.210760 -0.005482
C 1.389266 0.000000 -0.007966
C 2.884050 -0.000004 0.005292
C 0.678384 -1.210755 -0.005508
C -0.715012 -1.220601 -0.007226
H -3.298530 0.833884 -0.248860
H -3.298509 -0.834247 -0.247757
H -1.251273 2.165292 0.003896
H 1.219426 2.156101 -0.001664
H 3.262905 -0.000236 1.037899
H 3.303891 -0.881737 -0.495821
H 3.303904 0.881946 -0.495425
H 1.219428 -2.156097 -0.001713
H -1.251257 -2.165296 0.003803