11

C 0.080433 0.978630 0.768144
C 0.080433 0.978630 -0.768144
O 0.080433 -0.418538 -1.151708
C -0.271143 -1.203517 0.000000
O 0.080433 -0.418538 1.151708
H 0.995184 1.391527 1.223717
H -0.815854 1.440489 1.211694
H -0.815854 1.440489 -1.211694
H 0.995184 1.391527 -1.223717
H -1.354263 -1.394085 0.000000
H 0.370341 -2.095792 0.000000