28

N 1.980472 4.713606 0.089726
C 1.770737 3.568158 0.083142
C 1.576283 2.168612 0.076135
H 2.481352 1.567307 0.144743
N 0.324011 1.714798 0.005829
C -0.005192 0.413168 -0.007178
C -1.429980 0.094446 -0.056708
C -2.410669 1.064027 0.271466
C -3.765416 0.755278 0.225545
C -4.194783 -0.526682 -0.144983
C -3.240148 -1.491111 -0.479177
C -1.879132 -1.190445 -0.440879
C 0.962713 -0.698947 0.024612
C 1.992975 -0.786393 -0.932644
C 2.913515 -1.833959 -0.891052
C 2.824601 -2.816053 0.101314
C 1.803742 -2.739559 1.055887
C 0.882109 -1.693717 1.020806
H -2.081439 2.064284 0.554601
H -4.499649 1.514884 0.481003
H -5.249864 -0.763151 -0.174865
H -3.560412 -2.486251 -0.776203
H -1.153748 -1.949864 -0.720215
H 2.058000 -0.024627 -1.707915
H 3.703154 -1.887343 -1.635604
H 3.540872 -3.628235 0.131946
H 1.731260 -3.497298 1.831095
H 0.090969 -1.629468 1.764807