23

O -2.271361 0.080559 -1.835939
S -2.566819 -0.633961 -0.598443
C -1.314273 -1.170379 0.254603
H -1.531164 -1.932636 1.004826
C 0.031497 -0.791898 0.152673
C 1.000308 -1.359447 1.044267
C 2.332550 -1.007124 0.975193
C 2.787310 -0.074567 0.018743
C 4.221633 0.277197 -0.024492
F 5.065329 -0.753615 -0.265142
F 4.611691 1.184260 -0.943637
F 4.729579 0.792788 1.118961
C 1.849991 0.491393 -0.871107
C 0.515534 0.145623 -0.810859
C -3.273876 0.749652 0.478893
F -2.430470 1.766198 0.698223
F -4.373746 1.335033 -0.009951
F -3.633980 0.353528 1.708366
O -3.693063 -1.562828 -0.640070
H 0.662915 -2.075749 1.785166
H 3.044878 -1.454679 1.668896
H 2.177438 1.211614 -1.621487
H -0.189240 0.586536 -1.523120