21

C -4.136433 0.768389 -0.104225
C -3.081630 -0.311041 0.039782
O -1.814371 0.413529 -0.064033
C -0.661791 -0.358834 0.049925
O -0.762924 -1.565320 0.225904
C 0.501657 0.441756 -0.065586
S 1.937399 -0.307654 0.044874
C 2.878814 0.208315 -1.403521
C 2.874987 0.597182 1.290860
H -4.031972 1.530028 0.680002
H -4.037116 1.292287 -1.064276
H -5.146061 0.349281 -0.044120
H -3.103991 -0.819330 1.018956
H -3.109563 -1.062976 -0.767242
H 0.349268 1.503340 -0.220308
H 2.927754 1.293263 -1.543326
H 3.901511 -0.178793 -1.367065
H 2.400729 -0.199490 -2.306713
H 2.394386 0.460924 2.271209
H 3.897719 0.216201 1.368006
H 2.923678 1.677446 1.118506