14

C 1.753333 0.268955 -0.215341
Si 0.000026 0.000013 0.360910
H 0.000055 0.000009 1.827807
C -1.109615 1.383903 -0.215325
C -0.643744 -1.652871 -0.215321
H 2.146838 1.228540 0.154041
H 2.416777 -0.527320 0.155984
H 1.831530 0.279766 -1.311559
H -1.160101 1.444518 -1.311552
H -2.136782 1.246119 0.156223
H -0.750433 2.356946 0.153776
H -0.010101 -2.473564 0.154848
H -1.665452 -1.828795 0.155167
H -0.672536 -1.726317 -1.311547