32

C 0.406938 2.792470 0.171371
C -0.521664 1.595843 0.412156
C -1.956297 1.955065 0.002772
Si 0.084200 -0.003064 -0.438140
H 0.189704 0.202549 -1.893532
C 1.796118 -0.494504 0.261485
C 2.197252 -1.923889 -0.127333
C 2.892861 0.493474 -0.156727
C -1.120640 -1.455579 -0.149172
C -1.355937 -1.752609 1.336023
C -2.454037 -1.273820 -0.884270
H 0.090248 3.656300 0.768739
H 1.452210 2.572202 0.446331
H 0.403795 3.110843 -0.878886
H -0.522472 1.372184 1.516229
H -2.020958 2.252493 -1.051709
H -2.656368 1.116734 0.152526
H -2.329141 2.798559 0.596732
H 1.704347 -0.454616 1.382706
H 1.514596 -2.675719 0.287033
H 2.232441 -2.064193 -1.215368
H 3.199216 -2.161381 0.253873
H 2.655901 1.527591 0.146361
H 3.850323 0.233059 0.311310
H 3.057221 0.495046 -1.241643
H -0.600610 -2.348252 -0.605593
H -1.886730 -0.935583 1.840873
H -1.970858 -2.653610 1.459154
H -0.419686 -1.927721 1.880205
H -2.317555 -1.102902 -1.959397
H -3.082891 -2.166230 -0.776582
H -3.029111 -0.423173 -0.483239