39

C -1.935586 2.045680 -0.206660
C -1.726356 0.583963 -0.490760
C -0.440357 0.228767 -1.165387
Si 1.025505 -0.000203 0.010613
C 0.723601 -1.446615 1.185585
C 0.849792 -2.842276 0.584132
C 2.528262 -0.303453 -1.094430
C 3.848800 -0.507047 -0.358173
C 1.291410 1.517845 1.102761
C 1.455185 2.843541 0.366939
C -2.680553 -0.323259 -0.180985
C -3.960817 0.073234 0.494635
C -2.553421 -1.785837 -0.479429
H -1.023604 2.643670 -0.375434
H -2.724181 2.458245 -0.848589
H -2.233783 2.215276 0.836189
H -0.542631 -0.720662 -1.746800
H -0.162488 1.007346 -1.911926
H 1.422125 -1.344608 2.046277
H -0.300056 -1.304248 1.607613
H 1.866004 -3.042432 0.219611
H 0.618051 -3.610516 1.333287
H 0.162687 -2.995645 -0.257893
H 2.307971 -1.191340 -1.729417
H 2.616191 0.555206 -1.797539
H 4.142385 0.382647 0.214242
H 3.805313 -1.350267 0.343981
H 4.660760 -0.717586 -1.066131
H 0.429217 1.579490 1.806248
H 2.186019 1.321819 1.736492
H 0.542570 3.107673 -0.196331
H 1.648132 3.661323 1.072634
H 2.291153 2.824688 -0.343650
H -4.589097 0.673025 -0.177337
H -4.553556 -0.793876 0.807970
H -3.772653 0.674437 1.394026
H -1.800769 -1.988777 -1.255223
H -2.250591 -2.339366 0.420215
H -3.502000 -2.209951 -0.830469