15

O 3.101664 -1.167341 0.000141
N 2.281743 -0.224077 0.000187
C 0.939125 -0.546758 -0.000141
H 0.695786 -1.609001 -0.000257
C -0.145725 0.356581 -0.000330
O -1.348687 -0.415599 -0.000186
C -2.580652 0.347000 -0.000011
C -3.682272 -0.702562 0.000102
O -0.290236 1.566575 -0.000063
O 2.686111 0.945187 0.000211
H -2.592538 0.986315 0.899435
H -2.592761 0.986355 -0.899425
H -3.591711 -1.353351 -0.878858
H -3.591483 -1.353405 0.878999
H -4.673170 -0.244516 0.000245