43

C 5.095113 0.566835 -0.518221
C 3.761967 0.623040 0.109388
S 2.361394 -0.022258 -0.748795
C 3.377443 1.113542 1.317147
C 1.952526 0.989626 1.572769
C 1.262837 0.406325 0.568165
B -0.233305 0.026184 0.229934
C -1.122207 1.336639 -0.011148
C -1.801827 1.925476 1.060644
C -2.574731 3.072405 0.857262
C -2.673261 3.635611 -0.420763
C -1.996131 3.043164 -1.493945
C -1.223678 1.896499 -1.289261
O -0.211209 -0.823711 -1.009935
C -0.735562 -2.100453 -0.699694
C -1.658817 -2.499695 -1.862228
C 0.448986 -3.078447 -0.604426
C -1.485170 -1.907627 0.686197
C -2.958541 -1.492274 0.517636
C -1.380351 -3.112384 1.633553
O -0.794994 -0.842481 1.311665
H 5.386217 -0.469849 -0.741929
H 5.110099 1.123424 -1.466997
H 5.870028 0.996418 0.129688
H 4.032872 1.561574 2.043700
H 1.511718 1.339093 2.491289
H -1.723898 1.469689 2.046186
H -3.099439 3.527997 1.690284
H -3.269606 4.525329 -0.578683
H -2.071264 3.476813 -2.485577
H -0.697005 1.419598 -2.115159
H -1.070774 -2.677344 -2.767257
H -2.236307 -3.393396 -1.630279
H -2.343473 -1.674887 -2.092838
H 1.080716 -2.807744 0.252397
H 0.133529 -4.114496 -0.509373
H 1.082459 -2.971728 -1.491501
H -3.586952 -2.306406 0.164584
H -3.345914 -1.123201 1.472182
H -3.027414 -0.649639 -0.184587
H -0.341633 -3.235024 1.963760
H -1.975435 -2.940088 2.534843
H -1.716253 -4.031077 1.154038