19

O 3.877083 0.364206 -0.000016
N 2.713993 -0.105362 0.000008
C 1.658861 0.768949 -0.000049
H 1.924715 1.822167 -0.000120
C 0.267830 0.433485 -0.000021
C -0.219300 -0.899208 -0.000046
C -1.580915 -1.165070 -0.000036
C -2.519857 -0.116963 -0.000001
C -3.987538 -0.424368 0.000009
C -2.056655 1.204225 0.000034
C -0.690137 1.479171 0.000024
O 2.560306 -1.346202 0.000083
H 0.510380 -1.715762 -0.000065
H -1.926255 -2.195090 -0.000054
H -4.262924 -1.008948 0.886247
H -4.599648 0.483526 -0.000006
H -4.262930 -1.008981 -0.886206
H -2.765334 2.026983 0.000072
H -0.348812 2.508296 0.000056