37

C 3.720511 -1.067635 1.422051
C 3.688127 -0.584957 -0.027226
N 2.478283 0.204476 -0.404420
C 2.449554 1.553812 0.240783
C 1.239581 2.335779 -0.295880
N 0.000000 1.618011 0.139120
C -1.239582 2.335778 -0.295881
C -2.449555 1.553811 0.240782
N -2.478283 0.204475 -0.404421
C -3.688127 -0.584958 -0.027226
C -3.720510 -1.067634 1.422052
C -1.224812 -0.482525 -0.381870
C -1.161156 -1.876976 -0.631985
N 0.000001 -2.554132 -0.755463
C 1.161157 -1.876976 -0.631984
C 1.224813 -0.482525 -0.381870
C 0.000000 0.227985 -0.243894
H 2.827450 -1.657448 1.671191
H 4.592328 -1.705199 1.606739
H 3.764433 -0.236604 2.134069
H 4.578131 0.047255 -0.244633
H 3.752852 -1.454747 -0.723032
H 2.398400 1.488430 1.351037
H 3.390195 2.084098 -0.021459
H 1.223454 3.356429 0.141993
H 1.310528 2.444216 -1.401068
H -1.223455 3.356428 0.141992
H -1.310529 2.444215 -1.401069
H -2.398401 1.488429 1.351036
H -3.390196 2.084096 -0.021460
H -4.578131 0.047253 -0.244633
H -3.752851 -1.454749 -0.723031
H -4.592328 -1.705199 1.606741
H -2.827449 -1.657447 1.671193
H -3.764433 -0.236602 2.134068
H -2.073376 -2.470271 -0.750253
H 2.073377 -2.470270 -0.750253