23

C 4.562030 0.508545 -0.000051
C 3.549637 -0.363001 0.000022
C 2.147726 0.044285 0.000111
C 1.142962 -0.850170 0.000176
O -0.129107 -0.433936 0.000252
Si -1.656293 0.065741 -0.000022
C -2.487382 -0.599921 1.521232
C -1.691252 1.921758 0.007543
C -2.482782 -0.587490 -1.529137
H 5.598911 0.208155 -0.000114
H 4.431434 1.580594 -0.000051
H 3.737483 -1.440436 0.000020
H 1.937543 1.115800 0.000125
H 1.206690 -1.937289 0.000181
H -1.995185 -0.243316 2.437963
H -3.535241 -0.257689 1.537300
H -2.484209 -1.698995 1.540678
H -1.191671 2.338133 -0.879367
H -2.738195 2.266288 0.007394
H -1.194321 2.330831 0.899331
H -2.479268 -1.686371 -1.557631
H -3.530673 -0.245377 -1.545464
H -1.987979 -0.223244 -2.441453