22

C 3.675709 -0.738554 -0.000006
C 2.263681 -0.243283 -0.000006
C 2.038601 1.162986 0.000027
C 0.760249 1.694387 0.000038
C -0.315483 0.790144 0.000015
C -0.112061 -0.631976 -0.000019
C -1.412824 -1.248972 -0.000034
C -2.360303 -0.237503 -0.000016
C -3.836559 -0.319728 0.000002
N -1.708377 1.017649 0.000013
C 1.199204 -1.137403 -0.000029
H 4.221012 -0.384606 0.885905
H 3.738933 -1.833997 -0.000208
H 4.221142 -0.384276 -0.885704
H 2.899150 1.828886 0.000045
H 0.590822 2.765769 0.000062
H -1.594070 -2.302494 -0.000062
H -4.276651 0.156058 0.889053
H -4.276778 0.157112 -0.888415
H -4.174798 -1.368074 -0.000597
H -2.151565 1.913069 0.000050
H 1.360150 -2.211575 -0.000053