29

O 5.468069 0.694917 0.827268
N 4.671087 0.692522 -0.118048
C 3.379385 0.127413 0.064250
C 3.004874 -0.429498 1.320503
C 1.755318 -0.953055 1.506940
C 0.764514 -0.950783 0.449027
C -0.510927 -1.410164 0.696792
H -0.699677 -1.847584 1.676867
S -1.810207 -1.389508 -0.319791
O -2.825476 -2.378757 0.098809
C -2.586081 0.182512 -0.055987
C -1.882761 1.365261 -0.273971
C -2.509937 2.601355 -0.068977
C -3.842366 2.644113 0.352963
C -4.548469 1.456152 0.569999
C -3.915308 0.224701 0.362917
O -1.460242 -1.411042 -1.748954
C 1.188866 -0.423853 -0.827090
C 2.441374 0.093565 -1.008606
O 4.972828 1.174359 -1.214790
H 3.743790 -0.422120 2.126273
H 1.472341 -1.380881 2.462348
H -0.839524 1.337527 -0.603422
H -1.959148 3.522251 -0.238022
H -4.330357 3.602670 0.512447
H -5.583248 1.486963 0.896408
H -4.460430 -0.712102 0.529121
H 0.494626 -0.494992 -1.672010
H 2.754996 0.490610 -1.978232