22

N -1.586311 1.753547 0.179349
C -1.438387 0.324398 -0.237972
C -0.443934 -0.434584 0.653842
C 0.998182 -0.223920 0.295509
C 1.520241 1.067473 0.100354
C 2.870750 1.246716 -0.196942
C 3.725013 0.142020 -0.303492
C 3.212868 -1.144613 -0.117141
C 1.859458 -1.328734 0.179641
C -2.844138 -0.411565 -0.215637
O -2.823036 -1.652371 -0.247238
O -3.825300 0.355858 -0.178045
H -2.374786 2.143214 -0.351101
H -1.907240 1.776641 1.147048
H -1.081341 0.313698 -1.294188
H -0.600389 -0.160687 1.716436
H -0.717957 -1.517771 0.586532
H 0.844420 1.926072 0.169531
H 3.260999 2.249490 -0.349158
H 4.774699 0.284922 -0.533834
H 3.866817 -2.007651 -0.205903
H 1.465316 -2.333799 0.312485