17

C -2.211031 -0.040728 0.000093
C -1.309472 1.244053 -0.000031
N 0.042322 0.668406 0.000056
C 1.431169 1.169848 0.000041
C 2.230284 -0.186826 0.000078
N 1.244383 -1.320535 0.000029
C 0.047911 -0.761429 -0.000057
N -1.272596 -1.203033 -0.000313
H -2.859014 -0.074178 0.899467
H -2.859447 -0.074068 -0.898974
H -1.486601 1.869207 -0.898461
H -1.486611 1.869397 0.898261
H 1.639857 1.779225 -0.898950
H 1.639834 1.779266 0.899007
H 2.873819 -0.276661 -0.895364
H 2.873731 -0.276667 0.895584
H -1.567508 -2.158899 0.000287