18

O -2.537628 0.344788 -0.259812
C -1.424518 -0.543922 -0.433593
C -0.327586 -0.237964 0.609724
H -0.757312 -0.344084 1.632191
N 0.772431 -1.235032 0.393930
C 1.798246 -0.555789 -0.461698
C 1.637931 0.969806 -0.275925
C 0.276484 1.174495 0.411533
H -2.982443 0.177490 0.591810
H -1.766755 -1.590793 -0.368753
H -1.091916 -0.329363 -1.465897
H 1.187477 -1.490434 1.295597
H 2.817202 -0.905436 -0.218593
H 1.597859 -0.846733 -1.514974
H 2.456086 1.385912 0.334134
H 1.678614 1.492388 -1.245721
H -0.398942 1.805400 -0.195555
H 0.390795 1.692819 1.376490