70

C -1.665716 7.077667 0.127712
C -1.308126 5.870361 0.992049
C -1.129716 4.599855 0.148778
C -0.770789 3.390326 1.021863
C -0.592566 2.117414 0.175066
C -0.237651 0.915195 1.053563
Si 0.021006 -0.718006 0.145157
C -1.475251 -1.146686 -0.927208
C -2.826044 -1.192931 -0.208862
C -3.966543 -1.514697 -1.191196
C -5.324442 -1.563158 -0.478598
C -6.463138 -1.883962 -1.457162
C -7.817348 -1.933355 -0.752798
C 1.492398 -0.620462 -1.030564
C 2.849770 -0.365391 -0.369716
C 3.973571 -0.294684 -1.418697
C 5.337942 -0.046028 -0.762235
C 6.461922 0.022052 -1.805785
C 7.822303 0.269583 -1.157091
C 0.226426 -2.062101 1.473680
C 0.566336 -3.471417 0.905428
C 1.929631 -3.869554 1.531416
C 2.259408 -2.746844 2.482714
C 1.339002 -1.771476 2.448722
H -1.790831 7.978738 0.738168
H -0.885936 7.288354 -0.612906
H -2.601927 6.918811 -0.419273
H -0.379654 6.078564 1.558834
H -2.096647 5.708832 1.752797
H -2.057286 4.393723 -0.418876
H -0.342564 4.762886 -0.612124
H 0.157175 3.595927 1.588394
H -1.557548 3.227105 1.782494
H -1.525227 1.922055 -0.392633
H 0.197602 2.290991 -0.583633
H 0.695267 1.125357 1.626023
H -1.029318 0.757393 1.820561
H -1.510456 -0.397300 -1.751285
H -1.274887 -2.122977 -1.422963
H -2.812926 -1.954452 0.596817
H -3.034801 -0.223805 0.289113
H -3.990691 -0.757684 -1.997851
H -3.768232 -2.481243 -1.691892
H -5.300447 -2.319654 0.328998
H -5.522516 -0.596195 0.022411
H -6.489455 -1.126251 -2.264526
H -6.266914 -2.852182 -1.957815
H -8.623025 -2.162583 -1.458930
H -7.837546 -2.701026 0.029007
H -8.059769 -0.976126 -0.277463
H 1.530134 -1.567035 -1.615576
H 1.273944 0.180924 -1.773042
H 2.829951 0.579321 0.210237
H 3.078715 -1.168639 0.362779
H 4.001243 -1.234704 -2.001494
H 3.754677 0.506568 -2.149492
H 5.310213 0.894360 -0.179185
H 5.554763 -0.846419 -0.028979
H 6.491491 -0.919543 -2.388050
H 6.246075 0.823847 -2.538639
H 8.617392 0.316196 -1.909246
H 7.838347 1.214796 -0.602782
H 8.083328 -0.527432 -0.451704
H -0.753201 -2.100076 2.021876
H -0.217714 -4.194652 1.183342
H 0.626202 -3.486870 -0.195685
H 1.868783 -4.837289 2.056437
H 2.710855 -3.974202 0.758518
H 3.147324 -2.791528 3.087101
H 1.333697 -0.871051 3.043455