29

C 3.053946 0.000000 0.502337
C 1.727211 0.000000 1.254112
Pb 0.000000 0.000000 0.000000
C 0.000000 1.727211 -1.254112
C 0.000000 3.053946 -0.502337
C 0.000000 -1.727211 -1.254112
C 0.000000 -3.053946 -0.502337
C -1.727211 0.000000 1.254112
C -3.053946 0.000000 0.502337
H 3.892894 0.000000 1.215094
H 3.189478 -0.887018 -0.132772
H 3.189478 0.887018 -0.132772
H 1.717940 -0.877551 1.946596
H 1.717940 0.877551 1.946596
H 0.877551 1.717940 -1.946596
H -0.877551 1.717940 -1.946596
H 0.000000 3.892894 -1.215094
H -0.887018 3.189478 0.132772
H 0.887018 3.189478 0.132772
H -0.877551 -1.717940 -1.946596
H 0.877551 -1.717940 -1.946596
H 0.887018 -3.189478 0.132772
H -0.887018 -3.189478 0.132772
H 0.000000 -3.892894 -1.215094
H -1.717940 -0.877551 1.946596
H -1.717940 0.877551 1.946596
H -3.189478 -0.887018 -0.132772
H -3.892894 0.000000 1.215094
H -3.189478 0.887018 -0.132772