11

O -0.492514 -1.139181 -0.000355
C 0.939212 -0.766789 0.000372
C 0.984378 0.774635 -0.000293
C -0.476891 1.152535 0.000165
C -1.229431 0.039895 0.000075
H 1.350489 -1.229987 0.907511
H 1.351639 -1.231145 -0.905590
H 1.506022 1.176873 0.885881
H 1.504901 1.176054 -0.887582
H -0.792262 2.175979 0.000589
H -2.284285 -0.155982 0.000113