60

C -5.917885 -0.962008 1.461962
C -4.537643 -1.027213 0.892399
C -3.428336 -0.839437 1.727257
C -2.125490 -0.881728 1.213545
C -0.975425 -0.659202 2.137050
C -1.940163 -1.111729 -0.169434
N -0.628376 -1.174468 -0.768343
C -0.022117 -2.456481 -0.994822
C 1.332925 -2.307635 -1.034900
N 1.646314 -0.922563 -0.854119
C 0.417895 -0.209438 -0.572656
C 0.357771 1.121012 -0.324979
C -0.834506 1.950120 -0.220910
C -0.906990 2.921132 0.799603
C -2.024591 3.749186 0.905647
C -3.082944 3.629578 -0.001514
C -3.012602 2.676014 -1.022032
C -1.897487 1.844530 -1.137257
C 2.918922 -0.505465 -0.316347
C 3.724615 0.339313 -1.118012
C 3.256748 0.792824 -2.459427
C 4.970907 0.748860 -0.630503
C 5.420542 0.332879 0.631278
C 6.755277 0.786632 1.126809
C 4.613959 -0.499060 1.418651
C 3.358957 -0.920624 0.959961
C 2.519035 -1.807396 1.818643
C -3.055798 -1.300840 -1.020472
C -2.886986 -1.558383 -2.482618
C -4.344824 -1.263049 -0.475405
H -6.214234 0.084454 1.632910
H -6.671501 -1.406976 0.799823
H -5.989032 -1.480577 2.427585
H -3.579251 -0.647433 2.787291
H -0.097122 -1.283623 1.893130
H -0.642318 0.394531 2.072264
H -1.232038 -0.854161 3.185286
H -0.631144 -3.330201 -1.140361
H 2.108538 -3.026730 -1.226745
H 1.296175 1.666315 -0.201395
H -0.086969 3.021758 1.505385
H -2.073278 4.492684 1.698625
H -3.951922 4.274492 0.085081
H -3.831656 2.581185 -1.732184
H -1.843819 1.111068 -1.938653
H 2.326549 1.381817 -2.374299
H 3.991723 1.410658 -2.987264
H 3.011710 -0.064222 -3.106214
H 5.597348 1.398891 -1.237476
H 6.774516 1.878096 1.263681
H 7.029345 0.336540 2.089547
H 7.554067 0.535826 0.414143
H 4.961739 -0.818860 2.398072
H 1.452844 -1.505027 1.812208
H 2.556909 -2.848353 1.464722
H 2.843398 -1.808084 2.867180
H -2.693937 -2.623627 -2.673222
H -3.774873 -1.275638 -3.062254
H -2.034880 -1.001201 -2.904325
H -5.205042 -1.408737 -1.124423