18

N 3.446197 -0.527078 -0.459758
N 2.029213 -0.593617 -0.462565
C 1.230657 0.325814 0.233258
O 1.760574 1.215981 0.878405
C -0.241748 0.111931 0.098266
C -1.042315 1.199747 -0.277254
C -2.424664 1.032009 -0.395045
C -3.004670 -0.213046 -0.129284
C -2.204094 -1.293071 0.258275
C -0.820260 -1.133978 0.373679
H 3.749846 0.412976 -0.756237
H 3.788537 -0.629150 0.507501
H 1.668590 -1.317838 -1.082727
H -0.584365 2.172689 -0.465668
H -3.050435 1.874087 -0.688607
H -4.083207 -0.340721 -0.219858
H -2.659146 -2.258876 0.474030
H -0.199722 -1.972594 0.689224