21

C -2.921549 0.335725 0.024022
C -2.002884 -0.604870 -0.211124
C -0.779905 -0.400901 -1.031529
Si 0.733663 0.025726 0.020034
C 1.025433 -1.318533 1.283793
C 2.206609 0.144881 -1.126359
C 0.462824 1.660632 0.877524
H -3.802285 0.165315 0.620780
H -2.858644 1.342641 -0.356018
H -2.119684 -1.612739 0.201228
H -0.539552 -1.309893 -1.627402
H -0.907744 0.425331 -1.769259
H 1.165288 -2.298004 0.804871
H 1.921192 -1.106561 1.885706
H 0.169056 -1.396763 1.970832
H 2.052393 0.910146 -1.900363
H 3.110584 0.418153 -0.561139
H 2.403336 -0.812034 -1.630166
H -0.470029 1.628938 1.464071
H 1.287723 1.899198 1.563491
H 0.373908 2.484492 0.154922