48

C 0.549633 -4.170377 0.689261
C -0.449539 -3.330121 0.971688
C -0.286761 -2.047100 1.679325
Sn 0.003505 -0.480332 0.188260
C 0.148518 1.400653 1.257981
C -0.047629 2.581104 0.323756
C 0.046458 3.919464 1.079492
C -0.150039 5.112129 0.146471
C 1.810486 -0.897861 -0.930729
C 2.981172 -0.066357 -0.439375
C 4.258435 -0.359985 -1.247948
C 5.442547 0.470993 -0.759076
C -1.685544 -0.464829 -1.170243
C -2.985038 -0.194782 -0.433512
C -4.186203 -0.177835 -1.396900
C -5.497655 0.093093 -0.663224
H 0.409436 -5.100173 0.163043
H 1.576075 -3.995801 0.968753
H -1.475271 -3.561990 0.668467
H -1.161581 -1.782315 2.282217
H 0.581866 -2.030621 2.348285
H -0.601963 1.393173 2.055990
H 1.128505 1.435522 1.746828
H 0.710316 2.567626 -0.484526
H -1.032748 2.517793 -0.180713
H -0.709694 3.946141 1.887495
H 1.028669 3.995216 1.584356
H -0.082367 6.058590 0.694162
H 0.608661 5.135675 -0.643808
H -1.130731 5.085219 -0.341741
H 2.013101 -1.972512 -0.834064
H 1.603174 -0.712352 -1.990289
H 2.747735 1.014940 -0.509107
H 3.177296 -0.266772 0.632416
H 4.502609 -1.437752 -1.181654
H 4.075817 -0.158929 -2.321020
H 6.344532 0.256159 -1.342683
H 5.244420 1.545285 -0.844815
H 5.674726 0.263453 0.291483
H -1.493957 0.294902 -1.936147
H -1.710855 -1.432167 -1.684789
H -3.156310 -0.964178 0.345374
H -2.934737 0.775304 0.100285
H -4.027418 0.589884 -2.178401
H -4.248423 -1.144199 -1.933296
H -5.703277 -0.673401 0.092348
H -5.481082 1.061821 -0.151339
H -6.344825 0.103915 -1.357913