14

C 1.988227 0.664289 1.113637
C 1.564871 0.050641 -0.214459
C 2.481243 -1.083357 -0.674081
O 0.287071 -0.650669 -0.005814
C -0.893696 -0.009418 -0.049464
S -2.117694 -1.129711 0.239351
S -0.938658 1.649940 -0.364513
H 3.003973 1.058475 1.076444
H 1.306247 1.489880 1.376416
H 1.918766 -0.069194 1.924353
H 1.433002 0.817741 -1.008874
H 2.498745 -1.890383 0.068807
H 2.099701 -1.524874 -1.602934
H 3.500756 -0.732898 -0.838915