25

C -3.115364 0.008220 0.699224
C -2.267980 0.005559 -0.328202
C -0.798328 0.000416 -0.176686
C -0.088978 1.217478 -0.113467
C -0.821469 2.519404 -0.183769
C 1.305689 1.206566 0.010611
C 2.002865 -0.008797 0.073615
C 3.492312 -0.000958 0.207572
C 1.299281 -1.218027 0.011132
C -0.097172 -1.219684 -0.113063
C -0.836661 -2.517679 -0.182973
H -4.188460 0.011986 0.584537
H -2.795974 0.006793 1.731860
H -2.610152 0.007044 -1.366160
H -1.608942 2.572985 0.582981
H -0.165311 3.385993 -0.038596
H -1.314817 2.641360 -1.158806
H 1.852070 2.144361 0.059003
H 3.803474 0.501887 1.134314
H 3.922823 -1.010034 0.227445
H 3.963588 0.535498 -0.628058
H 1.836761 -2.160929 0.059526
H -1.626917 -2.565418 0.581296
H -1.327441 -2.638878 -1.159415
H -0.185860 -3.387642 -0.033895