23

C -0.652464 -0.058471 2.871823
C -0.652464 -0.860374 1.582553
Ge -0.367212 0.265328 0.000000
H -1.329770 1.431214 0.000000
C 1.479121 0.933950 0.000000
C 2.514492 -0.176310 0.000000
C -0.652464 -0.860374 -1.582553
C -0.652464 -0.058471 -2.871823
H 0.299043 0.462696 3.038078
H -1.450446 0.693667 2.898983
H -0.808044 -0.715872 3.738374
H 0.132979 -1.637764 1.619440
H -1.607000 -1.406908 1.472932
H 1.623192 1.584584 -0.882568
H 1.623192 1.584584 0.882568
H 3.531492 0.238602 0.000000
H 2.433535 -0.820415 0.884672
H 2.433535 -0.820415 -0.884672
H 0.132979 -1.637764 -1.619440
H -1.607000 -1.406908 -1.472932
H -1.450446 0.693667 -2.898983
H 0.299043 0.462696 -3.038078
H -0.808044 -0.715872 -3.738374