33

C 4.564086 0.076682 0.084985
N 3.133215 -0.097242 -0.306144
C 2.408676 1.214975 -0.231718
C 0.948138 1.017142 -0.683078
C 2.463366 -1.094270 0.593633
C 1.002546 -1.295323 0.140704
N 0.283523 0.016628 0.217384
C -1.152370 -0.048772 0.034049
C -1.818948 -1.127199 -0.416501
C -3.315171 -1.203349 -0.475972
C -4.008844 -0.091536 0.326093
C -3.316052 1.256250 0.091378
C -1.849542 1.194902 0.537102
H 4.726599 0.445304 1.108311
H 5.083463 -0.889222 -0.022432
H 5.043986 0.777431 -0.616954
H 2.428853 1.664293 0.784909
H 2.910761 1.927226 -0.920337
H 0.402799 1.983400 -0.611950
H 0.923007 0.697575 -1.748551
H 3.007169 -2.058769 0.507449
H 2.484681 -0.794971 1.664102
H 0.986059 -1.733781 -0.881559
H 0.501041 -2.012260 0.825997
H -1.314303 -2.014565 -0.785769
H -3.628746 -1.149464 -1.540239
H -3.653996 -2.192712 -0.108058
H -5.075622 -0.029370 0.046089
H -3.985040 -0.340229 1.404636
H -3.370867 1.522328 -0.981968
H -3.842397 2.059653 0.638190
H -1.784988 1.196372 1.646905
H -1.314928 2.109050 0.208493