20

O 0.987935 0.449809 -1.783320
S 1.144745 0.834919 -0.380980
C -0.169462 0.965254 0.509876
H -0.084478 1.529888 1.437022
C -1.457825 0.438853 0.249649
C -2.495866 0.608693 1.211492
C -3.770449 0.102555 0.986914
C -4.074153 -0.588121 -0.191466
C -3.064922 -0.760106 -1.149295
C -1.786381 -0.261032 -0.944340
C 2.024579 -0.698298 0.315966
F 1.330824 -1.838897 0.205303
F 3.204209 -0.980506 -0.252278
F 2.308753 -0.619561 1.624933
O 2.154283 1.863202 -0.116462
H -2.275018 1.138388 2.129880
H -4.543737 0.244300 1.738313
H -5.065262 -0.981354 -0.360799
H -3.289145 -1.293487 -2.070876
H -1.023238 -0.396632 -1.713989