27

C -4.537847 -0.692231 -0.588036
O -3.647455 -0.494021 0.536243
C -2.364142 -0.067732 0.274348
C -1.579899 0.035663 1.443476
C -0.262551 0.458486 1.324963
C 0.268778 0.786972 0.062698
C -0.526402 0.675311 -1.084719
C -1.855035 0.250419 -0.990611
C 1.661117 1.281714 -0.041971
C 1.955572 2.582192 -0.184429
N 2.722152 0.320558 0.061379
C 2.606250 -1.075259 -0.150750
C 3.897430 -1.818834 0.070753
O 1.571181 -1.608294 -0.482465
H -4.136575 -1.456122 -1.260591
H -5.450682 -1.046209 -0.091628
H -4.713894 0.255598 -1.104131
H -2.014829 -0.224681 2.405006
H 0.365421 0.537666 2.212478
H -0.105446 0.915906 -2.061554
H -2.458795 0.162591 -1.886453
H 2.948305 2.986634 -0.268429
H 1.191020 3.342865 -0.226257
H 3.650611 0.712029 0.231640
H 4.300022 -1.675767 1.081508
H 3.726440 -2.901494 -0.055203
H 4.673900 -1.534597 -0.650601