21

C 3.292160 0.067240 0.366255
O 2.030541 0.274168 -0.290307
C 0.963423 -0.551945 0.242899
C -0.229726 -0.232465 -0.679335
H 0.110291 -0.332681 -1.737932
N -1.307092 -1.228673 -0.363195
C -2.253114 -0.549874 0.579636
C -2.104771 0.976279 0.387997
C -0.811858 1.179724 -0.420740
H 3.955942 0.761962 -0.162832
H 3.223773 0.329071 1.425994
H 3.630665 -0.964873 0.235600
H 1.249072 -1.615741 0.180203
H 0.777080 -0.276430 1.292565
H -1.799487 -1.487404 -1.223981
H -3.290520 -0.894778 0.423620
H -1.963643 -0.846054 1.610286
H -2.973763 1.397852 -0.142892
H -2.055031 1.493809 1.359622
H -0.082935 1.811497 0.116784
H -1.012812 1.697389 -1.372491