24

C 2.944855 -0.884617 -0.052304
C 2.577587 0.547658 0.146531
C 1.450484 1.127447 -0.291817
C 0.369158 0.460341 -1.064081
Si -1.085756 -0.064583 0.022699
C -1.806383 1.429321 0.883875
C -2.378556 -0.830733 -1.092656
C -0.523332 -1.316693 1.288701
H 2.582840 -1.496429 0.786669
H 2.502732 -1.302690 -0.967627
H 4.030911 -1.019581 -0.119547
H 3.311520 1.125927 0.707634
H 1.277834 2.189784 -0.091018
H -0.023188 1.135064 -1.858789
H 0.740015 -0.450661 -1.591111
H -2.138446 2.188045 0.161207
H -2.671487 1.150832 1.502710
H -1.056225 1.894021 1.541648
H -1.980990 -1.705607 -1.626072
H -3.245365 -1.163556 -0.502154
H -2.739468 -0.111855 -1.841680
H 0.296118 -0.895336 1.893226
H -1.339193 -1.597916 1.968964
H -0.149889 -2.232216 0.808656