32

C 0.934108 2.914348 0.000022
C 0.406525 1.687058 0.000028
O 1.104012 0.548187 0.000055
Si 2.208582 -0.653562 -0.000007
C 3.250680 -0.501689 1.525960
C 1.282826 -2.266482 0.001264
C 3.248945 -0.503084 -1.527297
O -0.950270 1.500459 0.000010
C -1.476747 0.133317 0.000000
C -2.985723 0.361523 -0.000047
C -3.742789 -0.971380 0.000042
C -5.253706 -0.753876 -0.000005
H 0.327532 3.802437 0.000004
H 1.992694 3.095612 0.000036
H 2.645499 -0.576311 2.441832
H 4.003804 -1.306167 1.543908
H 3.779227 0.463979 1.552648
H 0.649182 -2.379595 -0.889222
H 2.019069 -3.088853 0.001270
H 0.650152 -2.378712 0.892555
H 3.777490 0.462545 -1.555442
H 4.002026 -1.307601 -1.545372
H 2.642733 -0.578507 -2.442419
H -1.111238 -0.378683 -0.905654
H -1.111291 -0.378672 0.905682
H -3.270489 0.974394 0.879407
H -3.270459 0.974258 -0.879604
H -3.452641 -1.571881 -0.885034
H -3.452678 -1.571741 0.885226
H -5.581905 -0.192775 -0.882971
H -5.791567 -1.708808 0.000055
H -5.581942 -0.192643 0.882863