20

C -0.891090 -1.473419 -0.475151
C 0.393007 -1.689769 -0.161924
C 1.183114 -0.838925 0.784532
C 1.800206 0.359247 0.043312
C 0.767918 1.161816 -0.761162
C -0.374666 1.721111 0.093770
C -1.563278 0.842768 0.339100
C -1.773180 -0.458351 0.103966
H -1.393708 -2.122820 -1.199263
H 0.949693 -2.505491 -0.622958
H 0.533091 -0.472267 1.607023
H 1.981396 -1.431778 1.270459
H 2.304396 1.017953 0.775569
H 2.592402 0.001044 -0.642830
H 1.285269 2.000379 -1.267487
H 0.351080 0.534086 -1.574236
H 0.026304 2.037367 1.082856
H -0.739993 2.657330 -0.385286
H -2.386320 1.413834 0.791660
H -2.755799 -0.876499 0.365836