24

C 0.983651 -0.356164 -0.467866
H 0.478104 -0.551477 -1.444903
C -0.008065 -0.673590 0.683509
N -1.377060 -0.264461 0.334576
C -2.457911 -1.108755 0.009336
N -3.551581 -0.369857 -0.286443
C -3.173232 0.967910 -0.162293
C -1.831044 1.055756 0.216258
N 1.377352 1.087116 -0.368379
C 2.719996 1.132196 0.291365
C 3.400060 -0.235345 0.068086
C 2.277187 -1.204034 -0.343158
H 0.000873 -1.761081 0.915256
H 0.310068 -0.139870 1.611582
H -2.403391 -2.183537 0.013763
H -3.872436 1.763291 -0.345819
H -1.197611 1.906380 0.390397
H 1.429465 1.499785 -1.305151
H 3.326931 1.973060 -0.090263
H 2.555371 1.319023 1.374244
H 4.173086 -0.171554 -0.716274
H 3.915186 -0.578288 0.980231
H 2.169242 -2.019172 0.390951
H 2.510284 -1.693984 -1.303709