19

C 2.524354 0.243339 -0.000999
C 1.146838 -0.294651 -0.001747
C 0.712758 -1.620441 0.003390
C -0.712691 -1.620474 0.003362
C -1.146822 -0.294701 -0.001838
C -2.524345 0.243265 -0.000973
N -0.000009 0.524155 -0.013054
C -0.000061 1.990600 0.007140
H 2.752381 0.786389 -0.929385
H 2.701367 0.923257 0.844108
H 3.260249 -0.571094 0.082622
H 1.333785 -2.490918 0.006695
H -1.333679 -2.490977 0.006632
H -2.702671 0.919078 0.847173
H -2.750901 0.790842 -0.927036
H -3.260382 -0.571553 0.077466
H -0.000137 2.369668 1.045281
H 0.890819 2.392336 -0.506065
H -0.890946 2.392271 -0.506121