51

C 3.910632 3.979699 -0.580667
C 2.972775 3.047233 0.071332
S 2.452831 1.590609 -0.778573
C 2.389053 3.099216 1.297595
C 1.507534 1.977856 1.574378
C 1.426842 1.081109 0.567050
B 0.663613 -0.264820 0.245948
C -0.904458 -0.005297 0.046494
C -1.761749 -0.061238 1.151209
C -3.130472 0.168371 0.997009
C -3.644050 0.453222 -0.280419
N -5.066129 0.708894 -0.538192
C -5.907752 -0.449115 -0.106541
C -5.505502 1.968722 0.137565
C -2.790643 0.505712 -1.392954
C -1.422271 0.274904 -1.220513
O 1.261507 -0.834007 -1.009674
C 1.834520 -2.093325 -0.713657
C 1.461911 -3.036929 -1.868433
C 3.360901 -1.906369 -0.653573
C 1.211316 -2.505396 0.686860
C -0.108801 -3.286424 0.548370
C 2.178594 -3.260838 1.610547
O 0.929755 -1.271893 1.320802
H 4.857615 3.480407 -0.832620
H 3.489598 4.375149 -1.516963
H 4.148500 4.836502 0.062880
H 2.536341 3.879577 2.023905
H 0.979378 1.893198 2.509145
H -1.343438 -0.295411 2.129411
H -3.789130 0.127351 1.856225
H -5.916798 -0.635850 0.976630
H -6.939521 -0.284011 -0.446877
H -5.527696 -1.357200 -0.603186
H -4.849017 2.788136 -0.200600
H -6.531154 2.204579 -0.177488
H -5.467093 1.939389 1.235771
H -3.196766 0.725079 -2.375662
H -0.741973 0.304258 -2.072229
H 1.974334 -2.731834 -2.785474
H 1.718357 -4.071162 -1.643381
H 0.387310 -2.966149 -2.074577
H 3.619159 -1.262768 0.198216
H 3.898009 -2.848143 -0.572389
H 3.698456 -1.372039 -1.548151
H 0.040069 -4.302673 0.191112
H -0.620801 -3.313687 1.514995
H -0.782377 -2.755512 -0.138770
H 2.990825 -2.593077 1.922718
H 1.665260 -3.575038 2.523709
H 2.601725 -4.136452 1.119501