16

O -0.000665 2.964698 -0.000035
C -0.310473 1.781214 0.000363
N -1.544043 1.215763 0.000276
S -1.509777 -0.461839 0.000151
O -2.025704 -1.063724 1.228998
O -2.025881 -1.063534 -1.228714
C 0.262598 -0.608334 -0.000020
C 1.075459 -1.720346 -0.000230
C 2.473342 -1.531429 -0.000407
C 3.011545 -0.243470 -0.000373
C 2.172809 0.886743 -0.000162
C 0.802337 0.687652 0.000012
H 0.658418 -2.725734 -0.000279
H 3.129872 -2.395433 -0.000577
H 4.090065 -0.107670 -0.000503
H 2.578674 1.896232 -0.000104