77

C -1.053267 7.685787 -0.324113
C -1.178441 6.386234 0.468763
C -0.501156 5.207478 -0.254512
C -0.632983 3.913308 0.551158
Si 0.152785 2.369788 -0.218430
C -0.726406 1.984919 -1.828230
C 1.960612 2.719522 -0.576514
C -0.011898 1.010923 1.051438
Si 0.072842 -0.795366 0.578656
H 0.100942 -1.544984 1.844802
C -1.414372 -1.401631 -0.388391
Si -3.124432 -1.291692 0.356890
C -3.155018 -1.817163 2.154815
C -3.818051 0.443294 0.205361
C -4.212290 -2.476177 -0.645490
C -5.700215 -2.484073 -0.288236
C -6.478705 -3.483871 -1.163244
C -7.966497 -3.501471 -0.817778
C 1.609832 -1.227173 -0.405761
Si 3.201799 -1.512955 0.531072
C 3.574590 -0.141657 1.752066
C 3.149954 -3.151702 1.439341
C 4.576221 -1.566289 -0.772000
C 5.978608 -1.899155 -0.258358
C 7.005533 -1.907914 -1.405831
C 8.410555 -2.240262 -0.907190
H -0.004498 7.961653 -0.481056
H -1.520513 7.600948 -1.311594
H -1.537638 8.517424 0.198767
H -0.731247 6.515633 1.472946
H -2.246857 6.154586 0.641976
H -0.952632 5.088519 -1.259842
H 0.566457 5.450419 -0.428184
H -0.183498 4.045622 1.560158
H -1.707192 3.681205 0.726131
H -0.738924 2.865003 -2.485987
H -0.232021 1.165596 -2.367703
H -1.768594 1.686778 -1.638151
H 2.470914 3.116658 0.311580
H 2.487929 1.806571 -0.888189
H 2.058955 3.460581 -1.382118
H 0.805518 1.183980 1.802608
H -0.990515 1.145483 1.583567
H -1.448565 -0.860837 -1.367715
H -1.219341 -2.483848 -0.608903
H -2.587640 -1.114291 2.782071
H -4.185067 -1.856571 2.535157
H -2.707431 -2.813634 2.279924
H -3.974535 0.716645 -0.847224
H -4.785113 0.520387 0.721887
H -3.136298 1.184113 0.647275
H -4.079723 -2.218834 -1.719588
H -3.786153 -3.496760 -0.523769
H -5.843095 -2.745403 0.779514
H -6.135857 -1.472451 -0.413903
H -6.345370 -3.228456 -2.231912
H -6.053653 -4.498430 -1.040229
H -8.133344 -3.787489 0.226744
H -8.425048 -2.517179 -0.964581
H -8.510883 -4.215140 -1.445403
H 1.408954 -2.167545 -0.979463
H 1.780606 -0.416472 -1.157304
H 2.876844 -0.172761 2.601295
H 4.594867 -0.235605 2.148706
H 3.482781 0.844883 1.274319
H 3.030474 -3.991913 0.742297
H 4.077482 -3.310455 2.007148
H 2.309203 -3.178329 2.147998
H 4.269368 -2.303988 -1.546087
H 4.581581 -0.577070 -1.281647
H 6.296528 -1.166215 0.510023
H 5.984247 -2.887241 0.244254
H 6.698696 -2.640470 -2.176727
H 7.010528 -0.922912 -1.910686
H 8.758002 -1.509982 -0.167844
H 8.445929 -3.227586 -0.433267
H 9.132881 -2.244231 -1.730486