15

O -0.685244 -1.819993 0.000000
O 0.465777 -1.094778 0.000000
C 0.127670 0.326778 0.000000
C -0.685244 0.643309 1.266302
C 1.505353 1.021110 0.000000
C -0.685244 0.643309 -1.266302
H -0.057918 0.643247 2.155004
H -1.246307 1.568207 1.206471
H -1.380626 -0.220048 1.364057
H 2.074678 0.712130 -0.880270
H 1.400865 2.104050 0.000000
H 2.074678 0.712130 0.880270
H -1.380626 -0.220048 -1.364057
H -1.246307 1.568207 -1.206471
H -0.057918 0.643247 -2.155004