28

C 0.718155 2.322159 -0.025243
C 0.469313 1.010246 -0.011045
Si 1.796556 -0.327238 0.003529
C 3.492237 0.456038 -0.005209
C 1.571224 -1.348344 1.549373
C 1.571009 -1.382290 -1.519296
C -0.925039 0.504364 -0.005496
C -1.591078 0.276088 1.211268
C -2.902523 -0.204576 1.212124
C -3.561232 -0.460050 0.004970
C -2.902465 -0.231040 -1.207418
C -1.590993 0.249533 -1.217003
H -0.062921 3.073487 -0.033250
H 1.710110 2.753762 -0.030098
H 3.643053 1.094209 0.877930
H 4.275192 -0.317348 0.003188
H 3.643088 1.074844 -0.901989
H 0.567649 -1.802454 1.573934
H 2.309592 -2.161557 1.601629
H 1.683323 -0.732546 2.453986
H 1.682520 -0.786461 -2.437275
H 2.309543 -2.196258 -1.554089
H 0.567524 -1.837078 -1.533395
H -1.081097 0.476215 2.151486
H -3.414133 -0.379280 2.156795
H -4.581901 -0.833644 0.009056
H -3.413981 -0.426343 -2.148100
H -1.080996 0.429019 -2.161363