14

O 2.362976 -1.120452 -0.000054
C 1.820675 0.000000 0.000083
O 2.362976 1.120452 -0.000046
C 0.270918 0.000000 0.000045
C -0.430201 -1.209531 0.000031
C -1.829173 -1.212042 -0.000009
C -2.528945 0.000000 -0.000032
C -1.829173 1.212042 -0.000012
C -0.430201 1.209531 0.000027
H 0.141239 -2.140406 0.000059
H -2.370043 -2.151849 -0.000018
H -3.613393 0.000000 -0.000064
H -2.370043 2.151849 -0.000025
H 0.141239 2.140406 0.000054