40

C 1.543941 3.803596 -0.293176
C 0.531668 2.933383 -0.193625
C 0.192302 1.901166 -1.192321
B -0.008190 0.469102 -0.420288
O -0.763732 0.632940 0.876372
C -2.028565 0.026514 0.751966
C -2.344095 -0.646539 2.098119
C -3.058782 1.138999 0.464907
C -1.870493 -0.986429 -0.459665
C -1.339828 -2.363455 -0.016389
C -3.142012 -1.159576 -1.307103
O -0.903664 -0.380911 -1.287687
C 1.384821 -0.262052 -0.119495
C 1.889398 -1.209651 -1.018500
C 3.115477 -1.833527 -0.772603
C 3.847783 -1.515745 0.377619
C 3.342912 -0.570684 1.279950
C 2.117202 0.052285 1.032188
H 1.773628 4.529808 0.462171
H 2.224716 3.820903 -1.124394
H -0.127908 2.938279 0.684074
H -0.775697 2.097518 -1.675806
H 0.942942 1.767124 -1.978646
H -2.516316 0.108474 2.869669
H -3.216767 -1.294271 2.029525
H -1.479852 -1.236557 2.426027
H -2.850922 1.579294 -0.518058
H -4.083879 0.777552 0.490330
H -2.939179 1.941920 1.197784
H -2.080199 -2.946841 0.524821
H -1.003513 -2.925171 -0.892628
H -0.451175 -2.225224 0.615946
H -3.365523 -0.226941 -1.836749
H -2.984926 -1.924532 -2.072566
H -3.997055 -1.439556 -0.693108
H 1.302896 -1.453266 -1.902724
H 3.501955 -2.566037 -1.473074
H 4.798185 -1.996670 0.568522
H 3.907299 -0.322164 2.172466
H 1.711031 0.784909 1.727148