16

O 3.196741 -0.305195 -0.000314
C 1.956015 -0.135164 0.000283
C 1.371272 1.192598 0.000035
C 0.005371 1.375077 0.000040
C -0.841240 0.251356 0.000036
O -2.211684 0.609579 -0.000020
C -3.150126 -0.475872 0.000150
C -0.337612 -1.052406 -0.000059
C 1.032661 -1.247796 -0.000055
H 2.055312 2.027316 -0.000052
H -0.435644 2.366730 -0.000007
H -3.030065 -1.084814 -0.901044
H -3.029991 -1.084602 0.901477
H -4.115249 0.038995 0.000128
H -1.003399 -1.907558 -0.000187
H 1.460534 -2.237887 -0.000221