20

C -3.612375 -0.377290 -0.000025
O -2.309326 -1.009525 -0.000098
C -1.197918 -0.200011 -0.000039
C -1.219573 1.205898 0.000014
C 0.000000 1.886150 0.000059
C 1.219573 1.205898 0.000051
C 1.197918 -0.200011 -0.000003
O 2.309326 -1.009525 -0.000029
C 3.612375 -0.377290 0.000089
C 0.000000 -0.929052 -0.000046
H -4.282542 -1.247067 -0.000019
H -3.744324 0.220735 0.906080
H -3.744393 0.220777 -0.906093
H -2.150132 1.757552 0.000018
H 0.000000 2.977657 0.000099
H 2.150132 1.757551 0.000082
H 3.744425 0.220776 -0.905975
H 3.744292 0.220737 0.906198
H 4.282542 -1.247067 0.000120
H 0.000000 -2.014991 -0.000085