14

N -3.649401 -0.072898 -0.000365
N -2.560248 -0.361745 0.000020
C -1.305065 -0.714314 0.000079
C -0.222996 0.258742 0.000131
O 0.979499 -0.404904 0.000077
C 2.184588 0.444335 -0.000003
C 3.320585 -0.554355 0.000037
O -0.295757 1.470433 0.000021
H -1.013390 -1.773142 0.000106
H 2.148218 1.076439 -0.903949
H 2.148260 1.076560 0.903861
H 3.279143 -1.209958 -0.881058
H 4.293509 -0.048245 -0.000024
H 3.279189 -1.209833 0.881227