21

C 1.745178 -0.894518 -1.523493
Si 1.170542 -0.003217 0.000000
C 1.745213 -0.891577 1.525193
C 1.746366 1.763188 -0.001680
N -0.631279 0.020151 -0.000036
C -1.474590 -1.117429 -0.000015
C -2.789297 -0.660666 0.000008
N -2.806078 0.740673 0.000054
C -1.515211 1.130947 -0.000039
H 1.400482 -1.939424 -1.547912
H 1.375185 -0.403788 -2.438278
H 2.846613 -0.903213 -1.568523
H 2.846650 -0.900443 1.570094
H 1.375448 -0.398950 2.439049
H 1.400259 -1.936351 1.551735
H 1.403374 2.311148 -0.892751
H 1.403735 2.312760 0.888531
H 2.849635 1.789563 -0.001924
H -1.095699 -2.122431 -0.000010
H -3.703499 -1.225718 0.000043
H -1.174234 2.156452 -0.000033