27

C 2.480980 1.234274 -1.346753
N 1.580415 0.831789 -0.228108
C 2.347627 0.441291 0.999996
C 2.445279 -1.096655 1.030556
C 1.260656 -1.590535 0.186536
C 0.727655 -0.355292 -0.597569
C -0.732075 -0.092439 -0.268084
C -1.685840 -1.024096 -0.716132
C -3.040984 -0.832576 -0.441251
C -3.460391 0.290382 0.280618
C -2.516114 1.220322 0.723040
C -1.157135 1.031685 0.450570
H 3.192494 0.461725 -1.671740
H 1.865286 1.532475 -2.211116
H 3.051540 2.125477 -1.039000
H 3.337900 0.926704 1.047376
H 1.760631 0.812997 1.868183
H 3.404148 -1.441131 0.608383
H 2.400363 -1.483837 2.060916
H 1.563127 -2.391925 -0.504559
H 0.472727 -2.017824 0.831909
H 0.793480 -0.552639 -1.698268
H -1.370334 -1.899351 -1.279395
H -3.772963 -1.557912 -0.790529
H -4.516035 0.438722 0.493897
H -2.837063 2.097596 1.281544
H -0.426157 1.768226 0.789997