29

C 4.165049 -0.332678 -0.032693
N 3.092254 -0.287080 -1.064543
C 2.137410 -1.414124 -0.941693
C 1.429017 -1.526950 0.402314
O 1.821889 -2.040867 1.409911
O 0.145752 -1.032940 0.377552
B -0.386523 0.219086 0.215275
O 0.419382 1.334646 0.183615
C 1.783546 1.514480 0.161754
O 2.298494 2.074553 1.086299
C 2.426405 1.035263 -1.133609
C -1.903746 0.439009 0.082961
O -2.721998 -0.697032 -0.050138
C -4.034978 -0.209339 -0.136606
C -5.057442 -1.252852 -0.280550
C -4.040312 1.163959 -0.062496
C -2.668620 1.578255 0.078639
H 4.694771 -1.298344 -0.103254
H 4.904162 0.459345 -0.243415
H 3.822724 -0.209107 1.009036
H 1.392030 -1.357602 -1.770683
H 2.708851 -2.361612 -1.117599
H 3.199012 1.786535 -1.440152
H 1.675462 1.025714 -1.959482
H -5.780403 -1.224327 0.551077
H -5.625769 -1.136440 -1.216977
H -4.611971 -2.262212 -0.289125
H -4.886318 1.820051 -0.096655
H -2.331839 2.595106 0.166624