27

O 0.951328 2.094699 -1.054638
C 0.809171 1.039956 -0.445008
C -0.659193 0.589641 -0.263931
C -1.495247 1.284781 0.623118
C -2.824764 0.904943 0.777014
C -3.319498 -0.182053 0.030693
N -4.715541 -0.587141 0.185599
O -5.421633 0.033470 0.973621
O -5.128257 -1.532499 -0.478257
C -2.487790 -0.883560 -0.863292
C -1.159791 -0.493002 -1.003114
C 1.721270 0.151756 0.128319
H 1.351737 -0.741015 0.620962
C 3.121501 0.311598 0.134071
O 3.687700 -0.815250 0.821481
C 5.121613 -0.875567 0.919211
C 5.714954 -1.400467 -0.383427
O 3.915446 1.139440 -0.277190
H -1.090923 2.129981 1.182470
H -3.488411 1.435287 1.463509
H -2.893039 -1.723349 -1.432071
H -0.493235 -1.025417 -1.683702
H 5.511355 0.129469 1.165446
H 5.271950 -1.570208 1.762400
H 5.225818 -2.332008 -0.686396
H 5.534337 -0.669859 -1.187979
H 6.789161 -1.569932 -0.305900