17

C -0.019860 0.764173 1.257478
C -0.019860 -0.773833 1.241627
N -0.686210 -1.277896 0.000000
C -0.019860 -0.773833 -1.241627
C -0.019860 0.764173 -1.257478
C 0.655904 1.326643 0.000000
H -1.066091 1.127645 1.309877
H 0.486903 1.130360 2.167729
H 1.019686 -1.149188 1.356526
H -0.604904 -1.158057 2.105774
H -0.658203 -2.304076 0.000000
H 1.019686 -1.149188 -1.356526
H -0.604904 -1.158057 -2.105774
H 0.486903 1.130360 -2.167729
H -1.066091 1.127645 -1.309877
H 0.599201 2.430720 0.000000
H 1.732503 1.073177 0.000000