37

C -0.125410 1.504315 -0.595534
H -0.290560 1.132654 -1.635021
C -0.051267 0.277356 0.361688
C -1.255399 -0.620346 0.138564
C -1.221933 -1.708910 -0.743848
C -2.355339 -2.509384 -0.919449
C -3.532335 -2.228860 -0.221001
C -3.573964 -1.138204 0.654558
C -2.444192 -0.338226 0.833854
C 1.245798 -0.495728 0.241298
C 1.799410 -1.066675 1.399518
C 2.992145 -1.790327 1.330006
C 3.647068 -1.952398 0.105020
C 3.098711 -1.390410 -1.051476
C 1.904245 -0.667658 -0.986251
N -1.286526 2.357312 -0.163772
C -0.733481 3.608869 0.440593
C 0.693759 3.796549 -0.110095
C 1.148085 2.391404 -0.537630
H -0.113757 0.686902 1.408751
H -0.312403 -1.946512 -1.292845
H -2.317020 -3.355153 -1.603107
H -4.411627 -2.853346 -0.357271
H -4.489868 -0.911084 1.196471
H -2.487387 0.526386 1.497483
H 1.293450 -0.952921 2.357004
H 3.411651 -2.230584 2.233189
H 4.576257 -2.514822 0.052332
H 3.602336 -1.517193 -2.008284
H 1.485876 -0.241513 -1.895883
H -1.871206 2.582515 -0.973395
H -1.384886 4.477469 0.238479
H -0.713588 3.465689 1.542468
H 0.702074 4.493280 -0.964995
H 1.367435 4.227460 0.647606
H 1.886744 1.989054 0.178687
H 1.656745 2.412336 -1.514145