14

H 1.082643 -1.738004 -0.000074
C 1.332193 -0.685657 -0.000038
C 0.296050 0.243771 -0.000005
O -0.966559 -0.440923 -0.000014
C -2.132881 0.413076 0.000032
C -3.317431 -0.544450 -0.000003
O 0.228393 1.470892 0.000049
C 2.673760 -0.340417 -0.000021
N 3.818118 -0.102547 -0.000010
H -2.096191 1.052561 0.898576
H -2.096203 1.052641 -0.898456
H -3.277148 -1.199451 -0.878902
H -3.277148 -1.199515 0.878848
H -4.267601 -0.008086 0.000016