28

N 0.000416 3.490826 -1.024466
C 0.000233 2.912156 -0.001552
C 0.000022 2.236253 1.178473
H -0.000134 2.760776 2.119330
P 0.000002 0.486816 1.234115
O 0.000009 -0.199205 2.593957
C -1.433946 -0.194500 0.209371
C -1.799129 0.324648 -1.027790
C -2.878631 -0.244576 -1.719465
C -3.578567 -1.320205 -1.164273
C -3.206943 -1.829504 0.084513
C -2.128673 -1.261261 0.775713
C 1.433877 -0.194562 0.209320
C 1.798857 0.324344 -1.028002
C 2.878325 -0.244933 -1.719685
C 3.578428 -1.320376 -1.164344
C 3.207002 -1.829438 0.084598
C 2.128767 -1.261141 0.775807
H -1.273546 1.173532 -1.473859
H -3.170960 0.156802 -2.684981
H -4.413912 -1.758881 -1.702119
H -3.752729 -2.660422 0.518771
H -1.842890 -1.653973 1.758590
H 1.273139 1.173078 -1.474197
H 3.170500 0.156263 -2.685323
H 4.413748 -1.759093 -1.702195
H 3.752915 -2.660215 0.518969
H 1.843132 -1.653671 1.758801