21

C 0.929693 -0.090570 -0.043861
C -0.543912 -0.041025 -0.024508
C -1.271777 -1.209536 0.253065
C -2.668131 -1.168022 0.276048
C -3.339553 0.031345 0.017516
C -2.614347 1.192701 -0.270306
C -1.218087 1.160777 -0.294173
N 1.654143 -1.095834 -0.463662
C 3.092548 -0.756273 -0.304967
C 3.129845 0.678477 0.301869
N 1.683963 1.081531 0.373635
H -0.742755 -2.146786 0.437808
H -3.233097 -2.073795 0.490967
H -4.428005 0.060375 0.035560
H -3.138479 2.123531 -0.480899
H -0.651578 2.062288 -0.533016
H 3.581080 -1.511899 0.340006
H 3.586677 -0.798389 -1.296636
H 3.632357 0.708266 1.283747
H 3.648196 1.392201 -0.369993
H 1.401188 1.497076 1.258545