15

C 0.000000 2.327379 0.459482
C 0.000000 1.212900 -0.573162
O 0.000000 0.000000 0.220236
C 0.000000 -1.212900 -0.573162
C 0.000000 -2.327379 0.459482
H -0.879470 2.255018 1.113819
H 0.879470 2.255018 1.113819
H 0.000000 3.314765 -0.011504
H -0.903321 1.227780 -1.207498
H 0.903321 1.227780 -1.207498
H -0.903321 -1.227780 -1.207498
H 0.903321 -1.227780 -1.207498
H 0.879470 -2.255018 1.113819
H -0.879470 -2.255018 1.113819
H 0.000000 -3.314765 -0.011504