16

H -0.817453 0.860095 1.736597
N 0.000000 0.320635 1.474442
C 0.000000 -0.008460 0.013375
C -0.000010 1.272006 -0.854633
C 1.264434 -0.834942 -0.281170
C -1.264424 -0.834959 -0.281165
H 0.817454 0.860092 1.736598
H 0.883585 1.888857 -0.669763
H -0.000008 1.023618 -1.920913
H -0.883615 1.888843 -0.669763
H 1.317824 -1.708194 0.382510
H 1.271662 -1.199591 -1.312110
H 2.179675 -0.256093 -0.126558
H -2.179672 -0.256123 -0.126545
H -1.271653 -1.199603 -1.312107
H -1.317797 -1.708214 0.382512