22

O -1.244016 1.457771 -0.000075
C -1.173674 0.230414 0.000100
C -0.127133 -0.700058 0.000137
H -0.407734 -1.745607 0.000242
C 1.238970 -0.365798 0.000044
C 2.240367 -1.386175 0.000093
C 3.585914 -1.036212 0.000001
N 4.040665 0.250653 -0.000137
C 3.082126 1.231683 -0.000183
C 1.720262 0.980231 -0.000100
O -2.429652 -0.455555 0.000091
C -3.603324 0.390289 -0.000045
C -4.779733 -0.576348 0.000075
H 1.936407 -2.422606 0.000201
H 4.363410 -1.804362 0.000036
H 3.467129 2.254313 -0.000292
H 0.989335 1.788724 -0.000137
H -3.570778 1.029743 0.898636
H -3.570750 1.029485 -0.898907
H -4.735368 -1.231241 0.879096
H -5.734281 -0.047404 -0.000019
H -4.735337 -1.231498 -0.878754