39

C -0.612021 -0.163718 -0.494920
N -1.982213 -0.127007 -0.919988
C -2.650310 -1.434781 -1.191342
C -3.146498 -2.114506 0.094967
O -4.007512 -1.224583 0.835876
C -3.379828 0.033329 1.161500
C -2.896768 0.740033 -0.114976
C -0.046171 1.171327 -0.147599
C -0.001038 2.189177 -1.112828
C 0.540210 3.434539 -0.784481
C 1.034287 3.668572 0.503215
C 0.990681 2.653241 1.464236
C 0.452843 1.404183 1.142664
C 0.150166 -1.280114 -0.514358
C 1.596311 -1.320379 -0.267470
C 2.109323 -2.261488 0.644248
C 3.483942 -2.334288 0.877705
C 4.360584 -1.477998 0.203243
C 3.855220 -0.545269 -0.708001
C 2.481305 -0.464204 -0.945106
H -3.513178 -1.219453 -1.863958
H -1.968844 -2.102156 -1.760530
H -3.816473 -2.968282 -0.109457
H -2.315252 -2.432393 0.747801
H -4.199846 0.578465 1.661676
H -2.556359 -0.149118 1.873159
H -2.407179 1.706118 0.130418
H -3.766742 0.985257 -0.767145
H -0.389578 2.001483 -2.114048
H 0.578929 4.223395 -1.533872
H 1.456335 4.639471 0.756075
H 1.382201 2.832974 2.464266
H 0.434871 0.606266 1.884275
H -0.280498 -2.258239 -0.734093
H 1.432708 -2.929599 1.171305
H 3.874672 -3.061429 1.587173
H 5.430402 -1.538130 0.385977
H 4.534883 0.121605 -1.235683
H 2.091100 0.263548 -1.654608