26

O -0.704348 1.842589 1.611280
S -0.605012 1.478131 0.187767
C 0.888706 1.052775 -0.315895
H 1.336214 1.659962 -1.101704
C 1.671543 0.028134 0.179907
O 2.959504 0.026447 -0.424615
C 3.855972 -1.022684 0.019705
C 5.138210 -0.790487 -0.766285
O 1.463129 -0.870975 0.998295
C -1.662901 0.067521 0.000361
C -1.444863 -1.092732 0.739222
C -2.308542 -2.187979 0.593688
C -3.386614 -2.112489 -0.292202
C -3.605151 -0.946361 -1.034536
C -2.739155 0.143212 -0.883403
O -1.185450 2.496775 -0.727817
H 3.993149 -0.922321 1.110186
H 3.385639 -1.996731 -0.197900
H 4.941512 -0.839401 -1.844525
H 5.531741 0.214498 -0.567294
H 5.903537 -1.526209 -0.512260
H -0.585528 -1.158845 1.425349
H -2.132339 -3.091444 1.168486
H -4.056447 -2.960377 -0.405985
H -4.440732 -0.884982 -1.722762
H -2.902466 1.063617 -1.456379