16

C -1.091677 1.497413 -0.000061
C -0.713639 0.213018 -0.000011
C -1.744749 -0.877447 0.000033
C 0.713639 -0.213018 0.000003
C 1.744749 0.877447 0.000043
C 1.091677 -1.497413 -0.000018
H -0.413030 2.334583 -0.000096
H -2.125751 1.806967 -0.000072
H -2.769663 -0.485082 0.000041
H -1.645778 -1.518043 -0.887232
H -1.645747 -1.518002 0.887324
H 1.645732 1.518020 0.887320
H 2.769663 0.485082 0.000077
H 1.645792 1.518026 -0.887236
H 2.125751 -1.806967 -0.000008
H 0.413030 -2.334583 -0.000049