23

O 1.168532 1.459589 0.000045
C 1.194476 0.236377 0.000392
C 0.114806 -0.711747 0.000301
H 0.403952 -1.763433 0.000427
N -1.203147 -0.369180 0.000072
C -2.164075 -1.375828 0.000012
C -3.524538 -1.071844 -0.000209
C -3.954143 0.256879 -0.000378
C -2.987692 1.267297 -0.000316
C -1.631949 0.951192 -0.000095
O 2.404317 -0.432063 0.000258
C 3.604928 0.414079 -0.000023
C 4.746792 -0.580631 -0.000013
H -1.819017 -2.413564 0.000149
H -4.248472 -1.889167 -0.000249
H -5.013729 0.500205 -0.000550
H -3.283526 2.318978 -0.000437
H -0.857460 1.744625 -0.000033
H 3.570173 1.047721 -0.902771
H 3.570400 1.048000 0.902540
H 4.704217 -1.235951 0.880792
H 4.703985 -1.236236 -0.880595
H 5.717088 -0.071770 -0.000222