19

C -2.899824 -1.101370 0.000003
C -1.628933 -0.315601 -0.000005
C -0.394064 -0.965140 -0.000005
C 0.780511 -0.186432 -0.000003
O 1.922124 -0.958628 0.000000
C 3.200108 -0.278929 0.000004
C 0.747880 1.212357 -0.000004
C -0.505117 1.838482 0.000000
C -1.682272 1.094467 0.000001
H -3.509778 -0.869766 0.885117
H -3.509852 -0.869673 -0.885035
H -2.730319 -2.186108 -0.000059
H -0.313868 -2.048338 -0.000003
H 3.309941 0.323410 -0.906212
H 3.309956 0.323353 0.906258
H 3.903249 -1.121832 -0.000030
H 1.652537 1.806344 -0.000004
H -0.553821 2.927841 0.000006
H -2.644774 1.596786 0.000009