50

C 2.872701 1.714086 1.157360
Si 2.069338 0.059348 1.421786
O 0.805357 -0.070293 0.461002
C -0.301307 -0.037788 -0.398643
C -1.196445 -1.250532 -0.088272
C -0.735537 -2.320034 0.687577
C -1.564603 -3.419167 0.936881
C -2.858552 -3.457519 0.411610
C -3.324587 -2.388869 -0.362201
C -2.499350 -1.290067 -0.610413
C -1.086592 1.240272 -0.086331
C -1.256786 1.609370 1.258473
C -1.994519 2.746386 1.594258
C -2.581026 3.524250 0.590581
C -2.426575 3.155104 -0.747718
C -1.685962 2.016864 -1.086237
C 0.193412 -0.178638 -1.885899
H -0.724149 -0.353887 -2.502315
N 0.882437 1.064561 -2.356969
C 2.353656 0.793344 -2.344264
C 2.550309 -0.734701 -2.422363
C 1.185613 -1.355423 -2.072568
C 3.279937 -1.300797 1.013983
C 1.533699 -0.115165 3.197213
H 2.199835 2.529148 1.464976
H 3.807212 1.792482 1.730067
H 3.094091 1.858967 0.082692
H 0.273039 -2.297733 1.106888
H -1.198026 -4.245052 1.543770
H -3.502868 -4.312444 0.605519
H -4.334200 -2.411110 -0.768290
H -2.879157 -0.456247 -1.200646
H -0.809959 0.999981 2.047149
H -2.113619 3.025482 2.639170
H -3.154191 4.411044 0.851224
H -2.879486 3.756120 -1.533465
H -1.575302 1.758567 -2.136793
H 0.582732 1.269723 -3.316541
H 2.866878 1.329900 -3.160940
H 2.755195 1.199812 -1.380948
H 2.889569 -1.048902 -3.421288
H 3.325997 -1.066001 -1.701116
H 1.258253 -1.968748 -1.155557
H 0.837478 -2.032503 -2.868541
H 4.192326 -1.149810 1.612509
H 2.877634 -2.295370 1.243376
H 3.556621 -1.278578 -0.054669
H 0.945550 0.752410 3.527710
H 0.934722 -1.019066 3.368405
H 2.438264 -0.174512 3.825252