32

N -1.771785 3.183894 -0.084007
C -1.957252 1.774071 -0.181613
N -0.781258 1.050715 -0.435900
C -1.021580 -0.296222 -0.406422
N -0.091393 -1.339864 -0.627870
C -0.849195 -2.567253 -0.466167
N -2.133823 -2.322942 -0.221445
C -2.279063 -0.931838 -0.178543
C -3.469546 -0.101442 0.042341
O -4.606984 -0.494487 0.225373
N -3.202299 1.303668 0.008943
C 1.353670 -1.252849 -0.775128
H 1.750035 -2.155655 -1.296869
O 1.993533 -1.312759 0.524477
C 2.315951 0.017449 1.015410
H 3.352610 -0.092409 1.408100
C 1.330703 0.382407 2.132695
O 1.648274 -0.387116 3.301331
C 2.252175 0.965854 -0.199670
H 1.586595 1.844078 -0.054045
O 3.603133 1.417085 -0.405823
C 1.819315 0.089399 -1.407391
H 1.060372 0.563939 -2.068477
O 2.934676 -0.135425 -2.266158
H -1.019346 3.553772 -0.646067
H -2.628659 3.718627 -0.174451
H -0.374073 -3.524969 -0.556237
H 1.446776 1.428443 2.468530
H 0.277827 0.199616 1.839725
H 1.465034 -1.336097 3.115300
H 3.664938 1.880512 -1.271285
H 3.729668 -0.383995 -1.728931