24

O 1.923792 -1.464987 0.000161
C 1.912744 -0.237674 0.000148
C 0.899620 0.739252 0.000052
H 1.231780 1.771305 0.000002
C -0.472641 0.467107 0.000015
C -1.007678 -0.865094 0.000072
C -2.362950 -1.093188 0.000036
C -3.281921 -0.012501 -0.000061
C -4.675544 -0.251208 -0.000099
N -5.821635 -0.446111 -0.000130
C -2.777717 1.308178 -0.000119
C -1.420472 1.547351 -0.000082
O 3.188547 0.395837 0.000056
C 4.332084 -0.494035 0.000062
C 5.540921 0.430140 -0.000112
H -0.296127 -1.694274 0.000149
H -2.749822 -2.111110 0.000081
H -3.480634 2.139962 -0.000193
H -1.041160 2.562156 -0.000126
H 4.275108 -1.131022 0.899329
H 4.274986 -1.131201 -0.899070
H 6.476292 -0.132844 -0.000120
H 5.521758 1.086435 -0.879262
H 5.521878 1.086607 0.878913