18

C 3.497379 -0.543818 -0.000818
C 2.175273 0.168934 0.000153
O 2.050198 1.373721 0.000755
N 1.059041 -0.711181 0.000314
C -0.312197 -0.325221 0.000250
C -1.284896 -1.348961 0.000331
C -2.636011 -0.979750 -0.000003
N -3.054691 0.313465 -0.000396
C -2.103125 1.286111 -0.000388
C -0.729027 1.017176 -0.000025
H 3.640431 -1.173263 0.887893
H 3.639524 -1.172129 -0.890512
H 4.318302 0.195199 -0.000732
H 1.235512 -1.718703 0.000757
H -1.008736 -2.397675 0.000662
H -3.426622 -1.739962 0.000030
H -2.473583 2.319115 -0.000685
H -0.001242 1.834823 0.000120