22

Cl -1.650988 0.000077 0.000000
C 0.071840 0.000051 0.000000
C 0.729357 0.000037 1.248954
O -0.207069 0.000025 2.316915
C 0.372721 -0.000009 3.646833
C -0.829114 -0.000124 4.580000
O 1.909508 -0.000002 1.573443
C 0.729357 0.000037 -1.248954
O -0.207069 0.000025 -2.316915
C 0.372721 -0.000009 -3.646833
C -0.829114 -0.000124 -4.580000
O 1.909508 -0.000002 -1.573443
H 1.002985 -0.899530 3.751330
H 1.002878 0.899575 3.751413
H -0.525775 -0.000145 5.628006
H -1.459814 0.877851 4.389214
H -1.459701 -0.878165 4.389145
H 1.002878 0.899575 -3.751413
H 1.002985 -0.899530 -3.751330
H -0.525775 -0.000145 -5.628006
H -1.459701 -0.878165 -4.389145
H -1.459814 0.877851 -4.389214