16

C 2.794287 -0.213635 -0.000015
C 1.557974 0.292324 -0.000010
C 0.351412 -0.533265 0.000003
C -0.907790 -0.056894 0.000003
C -1.259380 1.397369 0.000004
C -2.086655 -0.982655 0.000011
H 3.010475 -1.270914 -0.000009
H 3.682262 0.399014 -0.000026
H 1.394750 1.375534 -0.000016
H 0.527863 -1.611306 0.000011
H -1.854188 1.662472 -0.884690
H -1.853821 1.662543 0.884926
H -0.372390 2.047688 -0.000206
H -1.797600 -2.041620 0.000109
H -2.718270 -0.821367 0.884426
H -2.718168 -0.821503 -0.884502