29

C -0.382491 2.063535 0.982932
C -0.137388 1.023915 0.170110
C 1.235410 0.442627 0.096385
C 1.774593 -0.215030 1.211769
C 3.068808 -0.738824 1.151065
C 3.826548 -0.606140 -0.017156
C 3.289224 0.052510 -1.128170
C 1.994960 0.576419 -1.075407
N -1.071886 0.478736 -0.774757
C -1.045113 -1.007499 -0.934944
C -1.821029 -1.719908 0.184474
O -3.174655 -1.225186 0.256868
C -3.249564 0.202825 0.454539
C -2.487708 0.939967 -0.658247
H -1.338510 2.539070 1.105680
H 0.390942 2.528140 1.573635
H 1.186660 -0.309696 2.123371
H 3.488491 -1.248504 2.016717
H 4.835059 -1.013065 -0.060906
H 3.880622 0.159475 -2.036094
H 1.569798 1.090030 -1.938186
H -1.507669 -1.235029 -1.922950
H 0.001218 -1.375556 -0.986056
H -1.977814 -2.792483 -0.026265
H -1.339547 -1.593175 1.169284
H -4.337793 0.384888 0.415452
H -2.859228 0.445289 1.458123
H -2.518273 2.039090 -0.503976
H -2.971005 0.745486 -1.643574