49

C 3.872806 -0.989624 -1.062816
C 2.762115 -0.205096 -0.340449
C 3.265825 1.214327 -0.013612
O 1.694668 -0.096707 -1.254455
B 0.404696 -0.108185 -0.479634
C -0.084716 1.391205 -0.171843
C -0.737812 1.694305 1.028750
C -1.170776 2.997349 1.286239
C -0.951038 4.011056 0.344714
C -0.294743 3.710568 -0.854683
C 0.136611 2.405735 -1.110577
C -0.698660 -0.937935 -1.362129
C -0.142014 -2.317456 -1.700866
C -1.990116 -1.030458 -0.612990
C -3.192493 -0.592296 -1.196177
C -4.403522 -0.705315 -0.505279
C -4.436298 -1.257854 0.776236
C -3.240451 -1.683699 1.373082
C -2.033396 -1.570718 0.689571
O 0.751487 -0.799944 0.811735
C 2.146746 -0.957271 0.917001
C 2.425082 -2.475492 0.915890
C 2.570791 -0.360686 2.272030
H 4.692374 -1.239115 -0.390461
H 3.460541 -1.909552 -1.491520
H 4.262317 -0.402182 -1.899238
H 3.461589 1.755396 -0.944137
H 2.477409 1.778743 0.503586
H 4.165152 1.211294 0.597297
H -0.899798 0.895639 1.751866
H -1.681297 3.225830 2.215900
H -1.288393 5.020120 0.543185
H -0.121112 4.492883 -1.585729
H 0.660162 2.161259 -2.032612
H -0.811359 -0.340919 -2.291757
H -0.811399 -2.885829 -2.348495
H 0.829055 -2.199206 -2.201590
H 0.038967 -2.894861 -0.785889
H -3.176557 -0.150321 -2.187832
H -5.321246 -0.357316 -0.969584
H -5.373506 -1.347598 1.311147
H -3.256885 -2.096321 2.377465
H -1.086384 -1.863842 1.159184
H 2.134263 -2.900532 -0.051859
H 3.469308 -2.706609 1.114432
H 1.799534 -2.959804 1.671376
H 2.141301 -0.942048 3.091972
H 3.653059 -0.329824 2.383452
H 2.166543 0.654987 2.367223