16

C -2.936674 0.342953 0.000392
C -1.950635 -0.556523 -0.000339
C -0.512365 -0.240922 -0.000175
C 0.417813 -1.297978 0.000052
C 1.788490 -1.033268 0.000214
C 2.250598 0.287147 0.000137
C 1.333825 1.342536 -0.000104
C -0.038786 1.082473 -0.000258
H -3.981794 0.068123 0.000251
H -2.781645 1.412539 0.001200
H -2.182843 -1.627015 -0.001105
H 0.069121 -2.329182 0.000115
H 2.499812 -1.857513 0.000399
H 3.319060 0.491459 0.000260
H 1.689632 2.371481 -0.000172
H -0.744942 1.911603 -0.000459