49

C 4.314992 3.644236 1.760774
C 3.421756 2.472364 1.790488
S 2.921398 1.715369 0.276749
C 2.868520 1.811260 2.841229
C 2.025473 0.693786 2.450725
C 1.946195 0.510482 1.114782
B 1.204969 -0.463837 0.119138
C -0.367056 -0.125337 0.073829
C -1.237626 -0.782575 0.946957
C -2.610331 -0.495804 0.907650
C -3.574528 -1.182350 1.825570
F -4.305955 -0.354787 2.601403
F -4.520381 -1.916218 1.201076
F -3.065004 -2.050838 2.716270
C -3.116700 0.443346 -0.004046
C -2.235039 1.091838 -0.876844
C -2.741077 2.087759 -1.875309
F -4.039424 2.441441 -1.776135
F -2.112726 3.278363 -1.870345
F -2.641942 1.693722 -3.160756
C -0.858805 0.807223 -0.840618
O 1.780412 -0.291321 -1.250218
C 2.388238 -1.512512 -1.641109
C 2.059547 -1.714710 -3.126903
C 3.905066 -1.358275 -1.445059
C 1.752588 -2.603954 -0.680416
C 0.452553 -3.209875 -1.238911
C 2.721362 -3.717377 -0.261587
O 1.428599 -1.887354 0.500486
H 5.266336 3.409631 1.260881
H 3.855274 4.480807 1.213113
H 4.552349 4.003009 2.771087
H 3.012457 2.060355 3.878657
H 1.526308 0.082077 3.184143
H -0.816811 -1.521144 1.636282
H -4.184046 0.657261 -0.027593
H -0.153805 1.293221 -1.523845
H 2.576220 -0.964900 -3.734424
H 2.345622 -2.708138 -3.471613
H 0.987035 -1.568121 -3.300578
H 4.133181 -1.254605 -0.375434
H 4.469745 -2.192831 -1.854817
H 4.242712 -0.428353 -1.916223
H 0.633574 -3.897960 -2.062895
H -0.077729 -3.740754 -0.441692
H -0.218938 -2.412150 -1.580916
H 3.512206 -3.303770 0.376688
H 2.201654 -4.470848 0.338049
H 3.175467 -4.202414 -1.125523