15

N 0.000000 2.474729 0.354891
C -0.082440 1.263387 -0.515523
C 0.000000 0.000000 0.353799
C 0.082440 -1.263387 -0.515523
N 0.000000 -2.474729 0.354891
H -0.162254 3.313057 -0.194803
H -0.716522 2.449897 1.074312
H -1.000420 1.235519 -1.141736
H 0.782879 1.302351 -1.215806
H 0.879816 0.068872 1.025538
H -0.879816 -0.068872 1.025538
H -0.782879 -1.302351 -1.215806
H 1.000420 -1.235519 -1.141736
H 0.162254 -3.313057 -0.194803
H 0.716522 -2.449897 1.074312