10

C 0.253706 -0.771356 1.370786
S 0.253706 0.420782 0.000000
C 0.253706 -0.771356 -1.370786
O -1.077750 1.078072 0.000000
H 1.163934 -1.371603 1.367229
H 0.201024 -0.231533 2.322513
H -0.605835 -1.447271 1.350282
H -0.605835 -1.447271 -1.350282
H 0.201024 -0.231533 -2.322513
H 1.163934 -1.371603 -1.367229