27

C 1.939724 2.242991 -0.001353
C 2.018990 0.770204 -0.001252
C 1.004000 -0.126429 -0.005030
O -0.294191 0.012754 -0.010231
Si -1.925850 -0.027633 0.000673
C -2.506634 -0.847180 -1.557836
C -2.488242 -0.973171 1.492861
C -2.510042 1.733877 0.076899
O 1.394220 -1.478132 -0.003845
C 2.871333 -1.471448 0.001129
C 3.320251 0.006686 0.003084
H 0.896410 2.592814 -0.001221
H 2.429606 2.669323 0.885946
H 2.429311 2.669140 -0.888929
H -2.117433 -1.875197 -1.629904
H -3.607352 -0.892736 -1.568001
H -2.174954 -0.300164 -2.452820
H -2.149053 -0.499169 2.425920
H -3.588564 -1.024494 1.510622
H -2.094299 -2.001895 1.477340
H -2.150004 2.240099 0.984502
H -2.166358 2.311925 -0.793308
H -3.612269 1.749037 0.087679
H 3.151294 -2.024735 0.908782
H 3.157416 -2.024174 -0.904964
H 3.933887 0.253691 -0.881051
H 3.927739 0.253223 0.891572