16

C -1.123374 2.952728 0.000000
C -1.123374 1.461182 0.000000
C 0.002281 0.731389 0.000000
C -0.002281 -0.731389 0.000000
C 1.123374 -1.461182 0.000000
C 1.123374 -2.952728 0.000000
H -0.607630 3.355347 0.883726
H -0.607630 3.355347 -0.883726
H -2.138656 3.367728 0.000000
H -2.109128 0.995932 0.000000
H 0.983713 1.209681 0.000000
H -0.983713 -1.209681 0.000000
H 2.109128 -0.995932 0.000000
H 0.607630 -3.355347 0.883726
H 0.607630 -3.355347 -0.883726
H 2.138656 -3.367728 0.000000