49

C -3.922138 -0.421029 0.023401
C -3.010815 0.764442 0.017201
C -3.355059 2.057057 0.020177
O -1.721630 0.407736 0.016094
Si -0.067766 0.026842 0.001884
Si 0.882834 0.914259 1.765232
C 0.471744 -0.018149 3.360742
C 2.766693 0.922952 1.576388
C 0.303054 2.697901 2.005232
Si 0.159314 -2.152226 0.046178
C -0.258287 -2.961674 -1.614365
C 1.940162 -2.624097 0.483168
C -0.983995 -2.935881 1.336559
Si 0.837907 0.832187 -1.823541
C 1.054055 2.710686 -1.750164
C 2.544781 0.066094 -2.115259
C -0.238217 0.462531 -3.334771
H -3.577888 -1.189906 -0.684962
H -3.941606 -0.890881 1.017802
H -4.951016 -0.150461 -0.242745
H -4.372314 2.398786 0.022845
H -2.629451 2.853276 0.019943
H 0.891087 -1.032738 3.362672
H 0.879659 0.511373 4.231257
H -0.615220 -0.099340 3.500765
H 3.091643 1.600640 0.775158
H 3.233269 1.267171 2.509036
H 3.162134 -0.077950 1.356835
H -0.789247 2.735844 2.134309
H 0.760344 3.147047 2.895160
H 0.557744 3.329556 1.143368
H 0.466279 -2.684058 -2.392008
H -0.245303 -4.055287 -1.524959
H -1.256719 -2.666821 -1.963894
H 2.188314 -2.355390 1.519167
H 2.076913 -3.708817 0.381508
H 2.668558 -2.134684 -0.177853
H -2.038660 -2.753602 1.091642
H -0.832929 -4.021358 1.383934
H -0.797454 -2.529128 2.340056
H 1.783372 3.011118 -0.986364
H 1.405101 3.097827 -2.715149
H 0.099772 3.206410 -1.520545
H 2.474616 -1.002306 -2.360228
H 3.038075 0.566734 -2.959115
H 3.198132 0.172499 -1.238681
H -1.226537 0.933723 -3.230041
H 0.222413 0.854386 -4.249975
H -0.393946 -0.615427 -3.474089