29

C 2.881519 0.000000 0.367496
C 1.582148 -0.000001 1.153894
Ge 0.000000 0.000000 0.000000
C 0.000001 1.582148 -1.153894
C 0.000000 2.881519 -0.367496
C -0.000001 -1.582148 -1.153894
C 0.000000 -2.881519 -0.367496
C -1.582148 0.000001 1.153894
C -2.881519 0.000000 0.367496
H 3.746761 -0.000001 1.044044
H 2.979629 -0.885175 -0.273658
H 2.979628 0.885177 -0.273656
H 1.542558 -0.881072 1.820414
H 1.542557 0.881068 1.820416
H 0.881072 1.542558 -1.820414
H -0.881068 1.542557 -1.820416
H 0.000001 3.746761 -1.044044
H -0.885177 2.979628 0.273656
H 0.885175 2.979629 0.273658
H -0.881072 -1.542558 -1.820414
H 0.881068 -1.542557 -1.820416
H 0.885177 -2.979628 0.273656
H -0.885175 -2.979629 0.273658
H -0.000001 -3.746761 -1.044044
H -1.542557 -0.881068 1.820416
H -1.542558 0.881072 1.820414
H -2.979628 -0.885177 -0.273656
H -3.746761 0.000001 1.044044
H -2.979629 0.885175 -0.273658