15

C 2.219206 -0.040718 -0.000176
C 0.735382 -0.090279 0.000388
N 0.038305 -1.186583 0.000282
C -1.411693 -0.864916 -0.000043
C -1.538343 0.685651 -0.000355
C -0.082297 1.198515 0.000307
H 2.659892 -1.051905 0.015795
H 2.602286 0.465955 -0.896987
H 2.603149 0.495218 0.878872
H -1.883893 -1.323197 -0.891233
H -1.884210 -1.322896 0.891126
H -2.090284 1.039999 -0.884137
H -2.091181 1.040270 0.882769
H 0.140883 1.816371 0.884782
H 0.141688 1.816750 -0.883687