17

C -2.395531 -0.042553 0.046748
C -1.107505 -0.777618 -0.312247
Si 0.468018 0.008575 0.351653
H 0.405551 0.014450 1.818034
C 1.927622 -1.036973 -0.161809
C 0.670586 1.767619 -0.232749
H -3.272006 -0.591643 -0.321564
H -2.520353 0.070742 1.132084
H -2.435094 0.961144 -0.396321
H -1.147471 -1.823317 0.073460
H -1.023732 -0.876731 -1.417291
H 2.037947 -1.094621 -1.253363
H 2.863612 -0.619809 0.241606
H 1.834230 -2.066043 0.217115
H 1.593242 2.215396 0.166717
H 0.715334 1.839598 -1.328339
H -0.174543 2.387943 0.105065