41

C 1.239809 3.127568 -0.338151
Si 1.653914 1.308915 -0.030683
C 3.187165 0.910721 -1.062068
C 2.112988 1.126246 1.792523
Si -0.000013 0.000047 -0.582737
H -0.000107 0.000226 -2.127846
Si 0.306649 -2.086719 -0.030660
C -0.081257 -2.392664 1.792562
C -0.804670 -3.215627 -1.062018
C 2.088718 -2.637488 -0.337902
Si -1.960543 0.777788 -0.030657
C -2.382276 2.304927 -1.061761
C -3.328393 -0.490158 -0.338565
C -2.032085 1.266395 1.792617
H 0.925550 3.308089 -1.375214
H 0.438307 3.480891 0.325162
H 2.123408 3.752352 -0.148495
H 4.024192 1.553338 -0.756638
H 3.509871 -0.132152 -0.937991
H 3.013284 1.082005 -2.133081
H 1.251018 1.318679 2.446632
H 2.485484 0.117158 2.017151
H 2.902601 1.838695 2.065718
H -1.141491 -2.211009 2.017001
H 0.141233 -3.432582 2.066019
H 0.516076 -1.742057 2.446618
H -0.568778 -3.151264 -2.132934
H -0.667153 -4.261714 -0.756004
H -1.869171 -2.973278 -0.938654
H 2.795459 -2.119887 0.325294
H 2.187959 -3.715056 -0.147977
H 2.402206 -2.455855 -1.375005
H -2.442672 2.069185 -2.132935
H -3.357767 2.707870 -0.756948
H -1.640970 3.106142 -0.936692
H -3.233384 -1.361381 0.324131
H -4.311273 -0.037563 -0.148351
H -3.327818 -0.851864 -1.375878
H -1.344327 2.093393 2.017432
H -3.043872 1.594118 2.065728
H -1.767967 0.423568 2.446651