28

C 2.977903 1.342506 -1.153115
Si 2.586483 -0.028870 0.051522
C 0.746287 -0.262461 0.227390
C -0.217050 0.431420 -0.385839
C -1.660444 0.184130 -0.185541
C -2.531041 1.272410 0.000232
C -3.897306 1.053461 0.187742
C -4.409295 -0.248742 0.182909
C -3.548057 -1.333421 -0.007941
C -2.178826 -1.121044 -0.189821
C 3.304609 -1.640936 -0.559759
C 3.269844 0.386451 1.738789
H 2.558625 2.300860 -0.812982
H 4.064840 1.471888 -1.262196
H 2.564526 1.124194 -2.149005
H 0.485212 -1.069453 0.931349
H -0.000669 1.248520 -1.081900
H -2.137276 2.286776 0.005166
H -4.566373 1.899022 0.337072
H -5.474224 -0.415990 0.326380
H -3.944097 -2.347326 -0.014832
H -1.510822 -1.967099 -0.341227
H 4.393186 -1.561845 -0.695413
H 3.112882 -2.462028 0.145834
H 2.863736 -1.920089 -1.528998
H 2.803794 1.303398 2.131326
H 3.079897 -0.421081 2.460654
H 4.356243 0.551790 1.697183