28

O 0.212180 -1.750538 1.233080
S 0.332865 -0.954271 -0.000847
C -0.639500 0.395786 -0.000486
C -0.050520 1.652087 -0.000698
N 0.437640 2.711830 -0.000623
C -2.071080 0.278878 -0.000103
C -2.894439 1.437633 -0.000137
C -4.281073 1.333074 0.000193
C -4.907632 0.081834 0.000584
C -4.110456 -1.068827 0.000661
C -2.722017 -0.982210 0.000334
C 1.995448 -0.350697 0.000079
C 2.653507 -0.131644 1.209160
C 3.978201 0.323117 1.213832
C 4.636614 0.554049 0.001553
C 3.979147 0.324307 -1.211464
C 2.654449 -0.130459 -1.208272
O 0.213103 -1.749239 -1.235693
H -2.431648 2.420219 -0.000445
H -4.886294 2.236573 0.000142
H -5.985423 0.004916 0.000834
H -4.582698 -2.049033 0.000994
H -2.141345 -1.904094 0.000507
H 2.135659 -0.323932 2.154200
H 4.487486 0.501078 2.155656
H 5.662290 0.915039 0.002130
H 4.489161 0.503203 -2.152716
H 2.137336 -0.321808 -2.153905