28

O -0.229124 2.007586 -0.185619
C 0.549629 1.065853 -0.355365
C 0.234012 -0.314559 -0.391131
C -1.066239 -0.833391 -0.205931
O -2.049827 0.139969 0.044648
C -3.398745 -0.364711 0.223632
C -4.236984 0.889697 0.423753
O -1.464313 -2.005208 -0.236778
C 1.306507 -1.340351 -0.612520
C 2.307278 -1.426930 0.558223
C 3.432814 -0.388367 0.462756
C 2.918890 1.053846 0.587206
C 2.025262 1.477595 -0.580346
H -3.682044 -0.937003 -0.675489
H -3.405826 -1.035570 1.098488
H -5.293216 0.658600 0.557577
H -3.872450 1.452943 1.293320
H -4.115798 1.563436 -0.435747
H 0.834838 -2.338017 -0.748955
H 1.844384 -1.129565 -1.556283
H 1.749030 -1.290651 1.504647
H 2.744729 -2.439488 0.597319
H 4.176697 -0.579626 1.258022
H 3.968152 -0.509666 -0.497306
H 2.353294 1.165088 1.534450
H 3.780196 1.743290 0.658907
H 2.378422 1.049568 -1.531884
H 2.051162 2.575795 -0.696720