19

C 3.256387 -0.574493 0.000085
C 1.815670 -0.171276 -0.000111
C 1.501965 1.220990 0.000000
C 0.195906 1.672053 0.000058
C -0.824572 0.700930 0.000021
C -0.531632 -0.705012 -0.000065
C -1.792385 -1.399294 -0.000069
C -2.796904 -0.446655 0.000002
N -2.224867 0.840968 0.000063
C 0.810627 -1.128377 -0.000123
H 3.776546 -0.190730 0.888836
H 3.390242 -1.663641 -0.005290
H 3.779738 -0.181691 -0.882783
H 2.321252 1.937817 0.000058
H -0.041028 2.730623 0.000131
H -1.911159 -2.463082 -0.000123
H -3.863758 -0.584018 0.000019
H -2.725171 1.705717 0.000092
H 1.037043 -2.190974 -0.000174