48

C -2.320727 4.768834 1.214686
C -1.691183 3.506877 1.799866
C -1.233718 2.533019 0.698323
C -0.609149 1.282135 1.290070
Sn 0.020804 -0.091943 -0.257260
C 0.779247 -1.829345 0.713988
C 0.266490 -3.060612 1.011643
C 1.311892 -3.796834 1.690182
C 2.395058 -2.963239 1.760812
O 2.093049 -1.731739 1.161034
C -1.638993 -0.739704 -1.485699
C -2.885161 -0.977481 -0.651157
C -4.069451 -1.430329 -1.524708
C -5.326709 -1.671568 -0.692599
C 1.588000 0.738992 -1.493822
C 2.883668 0.864858 -0.710434
C 4.031219 1.378390 -1.598311
C 5.333539 1.518942 -0.813367
H -1.615199 5.314057 0.577714
H -3.200852 4.535921 0.604914
H -2.643098 5.453776 2.006887
H -0.829366 3.778706 2.439532
H -2.414187 3.001654 2.468895
H -2.103085 2.271454 0.062573
H -0.512671 3.050677 0.034789
H 0.268574 1.522799 1.902505
H -1.311054 0.753884 1.946347
H -0.710770 -3.443910 0.799216
H 1.221503 -4.800100 2.053893
H 3.385645 -3.011332 2.146074
H -1.811444 0.023684 -2.253004
H -1.332967 -1.651283 -2.013127
H -2.692699 -1.745370 0.124471
H -3.169044 -0.056221 -0.103800
H -4.273793 -0.668964 -2.301845
H -3.798539 -2.353662 -2.072199
H -6.163280 -1.992386 -1.323241
H -5.168231 -2.450128 0.062167
H -5.642617 -0.764226 -0.165546
H 1.713133 0.087577 -2.366904
H 1.251747 1.711725 -1.869864
H 2.752316 1.551656 0.148955
H 3.169841 -0.115493 -0.272293
H 4.180474 0.688879 -2.451478
H 3.753566 2.353195 -2.043007
H 5.230394 2.227802 0.015819
H 5.651079 0.560742 -0.386283
H 6.145903 1.878331 -1.454274