12

F 1.921902 -0.878419 -0.038132
B 0.822954 -0.032351 0.013785
F 0.766961 0.390744 1.328254
F 1.215471 1.086336 -0.705373
C -0.556589 -0.751659 -0.550829
C -1.679451 0.191463 -0.424523
C -2.785804 -0.015621 0.301986
H -0.690358 -1.680624 0.015442
H -0.348227 -1.014591 -1.595924
H -1.561673 1.124308 -0.987135
H -2.945775 -0.903614 0.885533
H -3.576685 0.703220 0.390620