38

N -2.614500 0.610093 3.198261
C -1.540299 0.337641 2.830350
C -0.282118 0.018227 2.379165
P 0.005163 -0.021637 0.678182
C -0.178338 1.611608 -0.173762
C 0.657235 1.938717 -1.243755
C 0.500628 3.172941 -1.882320
C -0.485557 4.066934 -1.446963
C -1.312577 3.729885 -0.373056
C -1.159931 2.494519 0.272640
C 1.727097 -0.582475 0.338887
C 1.984840 -1.642387 -0.529396
C 3.309913 -2.040590 -0.746086
C 4.356058 -1.381637 -0.092557
C 4.083795 -0.323909 0.781735
C 2.761964 0.079157 1.003889
C -1.146066 -1.144067 -0.229774
C -1.876431 -2.072185 0.510354
C -2.756259 -2.937250 -0.155910
C -2.896432 -2.859927 -1.543248
C -2.162142 -1.917006 -2.274680
C -1.284931 -1.050247 -1.616473
H 0.503213 -0.200680 3.084755
H 1.439303 1.261887 -1.594553
H 1.146739 3.441176 -2.715997
H -0.605462 5.028262 -1.946318
H -2.077850 4.426091 -0.030558
H -1.817899 2.260414 1.118708
H 1.182568 -2.179476 -1.042648
H 3.524469 -2.868405 -1.420442
H 5.386461 -1.695350 -0.261666
H 4.900014 0.183697 1.294421
H 2.568643 0.902541 1.698864
H -1.790031 -2.136969 1.602888
H -3.336541 -3.662013 0.414218
H -3.583620 -3.530451 -2.059556
H -2.282799 -1.854503 -3.354584
H -0.735837 -0.310028 -2.202326