19

C -2.488851 0.489869 0.294926
C -2.309589 -0.980177 -0.133698
N -0.918679 -1.471916 -0.082335
C 0.037246 -0.618429 0.027793
S 1.743041 -1.116939 -0.001507
C 2.382973 0.593571 0.104273
C 1.193790 1.518877 -0.157091
N -0.048298 0.794273 0.249838
C -1.342225 1.384134 -0.212227
H -3.456454 0.880631 -0.066752
H -2.526212 0.543531 1.403039
H -2.912614 -1.646855 0.524854
H -2.682091 -1.138909 -1.171541
H 2.816850 0.754577 1.108526
H 3.189735 0.726018 -0.636394
H 1.261797 2.439804 0.465233
H 1.165854 1.840586 -1.221762
H -1.386727 1.484310 -1.318163
H -1.430013 2.403755 0.220692