17

Cl -2.867855 -1.851233 -0.330759
C -2.529909 -0.249730 -0.814641
H -2.892383 0.006344 -1.786817
S -1.798438 0.793440 0.148629
C -0.036103 0.417260 0.088412
C 0.852955 1.401631 -0.334557
C 2.229422 1.136106 -0.391931
C 2.659402 -0.133029 -0.012134
Cl 4.371755 -0.483753 -0.076942
C 1.794412 -1.136579 0.416491
C 0.422403 -0.841831 0.463448
O -1.847350 2.186159 -0.380126
O -2.094590 0.672801 1.591755
H 0.468519 2.388476 -0.623351
H 2.931411 1.894892 -0.719747
H 2.164297 -2.114517 0.705053
H -0.283094 -1.610120 0.794162