22

O 0.978211 2.134799 -0.067468
C 1.360547 0.970333 -0.012265
C 0.680076 -0.269032 -0.077935
C -0.683167 -0.553850 -0.229963
O -1.502469 0.592546 -0.350459
C -2.920364 0.374112 -0.480695
C -3.536480 0.098532 0.887319
O -1.261611 -1.644376 -0.282817
C 1.636434 -1.427631 0.041978
C 3.052258 -0.818056 0.200687
C 2.881271 0.705424 0.164262
H -3.258293 1.332042 -0.910780
H -3.099982 -0.460250 -1.182365
H -4.624584 0.066650 0.850269
H -3.164845 -0.867247 1.263712
H -3.221244 0.860956 1.608525
H 1.375696 -2.060312 0.907900
H 1.578958 -2.074333 -0.850532
H 3.510075 -1.140763 1.147691
H 3.715339 -1.159910 -0.608006
H 3.426096 1.170373 -0.667377
H 3.226286 1.190043 1.086585