15

O -1.682742 2.311483 -0.000028
C -1.335303 1.144455 0.000105
N -2.125846 0.000000 -0.000186
C -1.335304 -1.144455 0.000024
O -1.682742 -2.311484 -0.000479
C 0.150980 -0.707115 0.000037
C 1.326582 -1.422170 0.000009
C 2.540816 -0.696096 0.000086
C 2.540816 0.696096 0.000187
C 1.326582 1.422170 0.000216
C 0.150980 0.707115 0.000139
H 1.323167 -2.508325 -0.000058
H 3.480777 -1.239302 0.000071
H 3.480778 1.239302 0.000246
H 1.323167 2.508325 0.000283