17

C -1.915885 -0.024874 -0.547410
C -0.823149 0.048860 0.522147
N 0.019652 -1.195145 0.449822
C 1.217824 -0.848071 -0.376829
C 1.447549 0.675490 -0.251812
C 0.132386 1.255904 0.298832
H -2.503591 -0.945352 -0.434821
H -2.597762 0.826999 -0.485736
H -1.487940 -0.051099 -1.556585
H -1.304980 0.114646 1.526943
H 0.318419 -1.463038 1.392902
H 2.101029 -1.435568 -0.071073
H 0.989789 -1.125099 -1.428100
H 2.290723 0.896956 0.422233
H 1.704863 1.118569 -1.227022
H -0.303325 1.987976 -0.399632
H 0.302862 1.797178 1.242566