11

C -0.997862 0.737681 -0.000018
C 0.280021 1.182133 -0.000015
C 1.227615 0.000000 0.000010
C 0.280021 -1.182133 -0.000014
C -0.997862 -0.737681 0.000026
H -1.902186 1.317445 -0.000010
H 0.641328 2.191422 -0.000013
H 1.885079 -0.000001 -0.888364
H 1.885043 0.000001 0.888415
H 0.641329 -2.191422 -0.000008
H -1.902185 -1.317446 0.000050