25

C -2.257748 -0.325351 0.996841
C -1.363027 -0.381855 0.004324
C -1.129984 0.797833 -0.906998
C -0.292802 1.896618 -0.232216
C 1.190904 1.536980 -0.063953
C 1.433575 0.404343 0.945648
C 1.818703 -0.936820 0.305518
C 0.846304 -1.437071 -0.770669
C -0.588960 -1.647344 -0.271267
H -2.852697 0.546983 1.211032
H -2.459198 -1.140416 1.670993
H -0.635192 0.476170 -1.846212
H -2.106622 1.222733 -1.217324
H -0.371810 2.823718 -0.833624
H -0.731685 2.139174 0.756294
H 1.626584 1.274603 -1.046783
H 1.737447 2.442010 0.266630
H 2.236117 0.703984 1.647098
H 0.531779 0.261723 1.575662
H 2.828967 -0.853054 -0.142189
H 1.905757 -1.698612 1.105595
H 0.843432 -0.729495 -1.625786
H 1.226461 -2.396017 -1.175985
H -0.567202 -2.282928 0.638322
H -1.153928 -2.234573 -1.027085