17

H 3.068104 1.789779 -0.000094
C 2.762436 0.735153 0.000140
C 1.338770 0.451397 0.000108
C 0.436159 1.540969 0.000051
C -0.933809 1.317178 0.000017
C -1.421366 -0.003368 0.000040
N -2.872122 -0.242218 0.000004
O -3.609553 0.731592 -0.000125
O -3.257787 -1.401456 -0.000042
C -0.536829 -1.094606 0.000093
C 0.836014 -0.867660 0.000126
N 3.690789 -0.183726 -0.000046
N 4.500897 -0.971767 -0.000282
H 0.816003 2.562164 0.000029
H -1.642604 2.153650 -0.000030
H -0.937656 -2.115366 0.000105
H 1.509672 -1.721719 0.000161