30

C 5.405554 -0.784289 -0.105161
C 3.961321 -0.410245 -0.042478
C 3.059954 -1.184825 0.706616
C 1.708451 -0.847601 0.763514
C 3.486219 0.709012 -0.745255
C 2.135124 1.052434 -0.706892
C 1.244384 0.273728 0.052592
N -0.153533 0.626086 0.101984
C -1.143082 -0.351836 -0.058962
C -2.470224 -0.049182 -0.023849
C -3.416676 -1.168958 -0.198772
N -4.787292 -0.895981 -0.228566
O -3.062826 -2.339611 -0.316344
C -2.963065 1.355502 0.187246
C -1.837841 2.334270 0.369550
C -0.541616 1.982958 0.324446
H 5.591135 -1.480450 -0.937553
H 6.057631 0.085784 -0.259987
H 5.749074 -1.280335 0.812839
H 3.417123 -2.057476 1.253227
H 1.022455 -1.447708 1.361594
H 4.175547 1.313282 -1.334128
H 1.775015 1.910087 -1.273408
H -0.797414 -1.385755 -0.228910
H -5.178513 0.022055 -0.171006
H -5.433623 -1.658412 -0.358379
H -3.581488 1.673766 -0.681529
H -3.624149 1.393423 1.081832
H -2.135760 3.364176 0.547759
H 0.280333 2.687910 0.468917