19

N 1.386754 1.804756 -0.052901
C 1.319729 0.391021 0.431084
C 0.084831 -0.338572 -0.123345
C -1.197740 0.297681 0.393346
S -2.597786 -0.609040 -0.354500
C -4.018527 0.390270 0.165762
C 2.626896 -0.415786 0.039965
O 3.528229 0.274731 -0.473951
O 2.622154 -1.627997 0.303267
H 2.335119 2.147196 0.142771
H 1.337059 1.799153 -1.071734
H 1.277413 0.419685 1.544558
H 0.116466 -0.337274 -1.230348
H 0.165165 -1.408086 0.176926
H -1.257657 0.239343 1.493387
H -1.239209 1.368066 0.115652
H -4.922383 -0.079559 -0.235261
H -4.098234 0.431560 1.255256
H -3.950651 1.409708 -0.224293