18

C -2.405841 0.000000 -0.006736
N -0.953299 0.000001 -0.352444
C -0.286291 -1.227819 0.195867
C 1.197884 -1.197793 -0.201814
O 1.831936 -0.000001 0.292730
C 1.197885 1.197792 -0.201814
C -0.286290 1.227820 0.195866
H -2.629940 -0.000039 1.069942
H -2.880795 0.885104 -0.460199
H -2.880803 -0.885066 -0.460265
H -0.378187 -1.317347 1.299378
H -0.777490 -2.118483 -0.249877
H 1.779747 -1.995117 0.291655
H 1.328458 -1.245967 -1.297367
H 1.779748 1.995115 0.291657
H 1.328460 1.245967 -1.297367
H -0.777488 2.118484 -0.249879
H -0.378187 1.317349 1.299377