22

C 2.589563 1.236211 -0.071804
C 1.916704 0.102413 0.140497
C 0.479623 0.100668 0.601004
C -0.479623 0.100669 -0.601004
C -1.916704 0.102413 -0.140498
C -2.533510 -1.248079 0.055874
C -2.589564 1.236211 0.071805
C 2.533510 -1.248079 -0.055874
H 3.615142 1.270336 -0.401214
H 2.163261 2.216702 0.067588
H 0.276851 -0.775338 1.247990
H 0.274786 0.986748 1.237245
H -0.274787 0.986750 -1.237243
H -0.276851 -0.775336 -1.247991
H -1.890556 -1.900607 0.661034
H -3.507844 -1.195771 0.558699
H -2.694685 -1.749352 -0.908461
H -2.163262 2.216702 -0.067588
H -3.615143 1.270335 0.401214
H 2.694692 -1.749348 0.908462
H 1.890554 -1.900609 -0.661028
H 3.507842 -1.195771 -0.558706