17

C -1.880136 -0.000006 0.526750
N -0.841922 -0.000054 -0.545812
C 0.066471 1.191302 -0.439695
C 1.334418 0.769987 0.337064
C 1.334580 -0.769872 0.336940
C 0.066518 -1.191364 -0.439545
H -2.522948 0.885330 0.399908
H -2.522916 -0.885380 0.400019
H -1.485872 0.000066 1.552903
H 0.322886 1.483284 -1.480487
H -0.436620 2.058344 0.022217
H 2.242361 1.173619 -0.138083
H 1.318061 1.164694 1.365763
H 2.242476 -1.173213 -0.138553
H 1.318626 -1.164760 1.365572
H -0.436487 -2.058310 0.022645
H 0.322782 -1.483588 -1.480305