22

C 0.650904 -0.972371 3.352606
C 0.650904 -0.111746 2.133594
C -0.333787 -0.109473 1.230778
C -0.322379 0.766481 0.000000
C -1.547385 1.694354 0.000000
H 0.596442 1.408115 0.000000
C -0.333787 -0.109473 -1.230778
C 0.650904 -0.111746 -2.133594
C 0.650904 -0.972371 -3.352606
H 0.707350 -0.362412 4.264883
H -0.246938 -1.598336 3.435589
H 1.518045 -1.647773 3.355304
H 1.529669 0.526212 2.029982
H -1.211006 -0.746508 1.329923
H -1.551026 2.338625 -0.885864
H -2.486291 1.130337 0.000000
H -1.551026 2.338625 0.885864
H -1.211006 -0.746508 -1.329923
H 1.529669 0.526212 -2.029982
H -0.246938 -1.598336 -3.435589
H 0.707350 -0.362412 -4.264883
H 1.518045 -1.647773 -3.355304