35

F -1.435896 2.146991 -1.893308
C -2.080898 1.517271 -0.905789
C -3.372719 1.980417 -0.624005
C -4.089489 1.363893 0.405895
C -3.517020 0.317898 1.132083
C -2.217247 -0.096769 0.802141
F -1.720934 -1.088724 1.546760
C -1.450235 0.464417 -0.224939
B -0.000053 0.000194 -0.685451
H -0.000095 0.000125 -1.894461
C 1.127332 1.023851 -0.225273
C 1.024884 1.969605 0.800964
F -0.082816 2.037384 1.544704
C 2.034409 2.887354 1.130860
C 3.226926 2.858685 0.405434
C 3.402345 1.928853 -0.623738
C 2.354831 1.042271 -0.905501
F 2.577562 0.168049 -1.892361
C 0.322929 -1.487903 -0.225088
C -0.274364 -2.560252 -0.905593
F -1.142532 -2.316188 -1.892747
C -0.030090 -3.910674 -0.623785
C 0.862565 -4.223500 0.405701
C 1.483090 -3.204973 1.131468
C 1.192813 -1.871904 0.801535
F 1.804620 -0.946315 1.545680
H -3.807401 2.798244 -1.187573
H -5.093212 1.702410 0.643494
H -4.063417 -0.160233 1.937728
H 1.893607 3.600298 1.935916
H 4.022374 3.558188 0.643066
H 4.328232 1.895305 -1.186768
H -0.521696 -4.695846 -1.187013
H 1.070808 -5.262096 0.643326
H 2.170663 -3.439359 1.936775