12

O 1.427925 -1.097357 0.000015
N 0.781980 -0.007763 -0.000017
C -0.571149 -0.001649 -0.000011
C -1.340092 -1.278842 -0.000002
C -1.303467 1.298721 -0.000003
O 1.429873 1.079376 0.000012
H -1.973923 -1.355907 0.889786
H -1.973946 -1.355904 -0.889774
H -0.653135 -2.140736 -0.000013
H -1.030843 1.895738 -0.881477
H -2.385306 1.149893 0.000002
H -1.030835 1.895733 0.881472