19

N -1.518051 -1.843334 0.035807
C -1.208526 -0.432600 0.414965
C 0.113181 0.048890 -0.197176
C 1.329033 -0.630219 0.443998
C 2.645044 -0.058860 -0.014373
N 2.798888 1.332180 0.090154
O 3.598334 -0.720231 -0.404657
C -2.365266 0.562465 -0.020217
O -2.090937 1.772672 0.047819
O -3.425092 0.012641 -0.369095
H -2.506814 -2.008430 0.260704
H -1.478475 -1.926063 -0.979254
H -1.154328 -0.391862 1.528193
H 0.112257 -0.124167 -1.289582
H 0.146972 1.153944 -0.063037
H 1.259394 -0.568189 1.549753
H 1.297189 -1.720452 0.218159
H 2.005241 1.936362 0.244139
H 3.613477 1.768216 -0.306520