12

C 0.000000 1.459588 -0.000018
C 0.000000 0.123875 -0.000009
C -1.263139 -0.682052 0.000003
C 1.263139 -0.682052 0.000014
H 0.896576 2.055886 -0.000003
H -0.896576 2.055886 -0.000015
H -1.321614 -1.330354 -0.884242
H -1.321676 -1.330225 0.884339
H -2.162622 -0.053385 -0.000075
H 1.321608 -1.330329 0.884277
H 1.321683 -1.330249 -0.884304
H 2.162622 -0.053385 0.000080