39

H 0.000009 0.497456 -2.636372
P 0.000012 -0.319906 -1.424421
N 1.469178 0.387208 -0.672534
C 2.312078 -0.477090 0.221681
C 1.750317 -0.627883 1.652102
C 2.493254 -1.877817 -0.401004
C 3.710323 0.187634 0.304284
C 1.278738 1.796174 -0.237830
C 0.000006 2.080725 0.571934
C -1.278730 1.796158 -0.237820
N -1.469158 0.387195 -0.672529
C -2.312075 -0.477097 0.221675
C -3.710234 0.187778 0.304388
C -2.493441 -1.877777 -0.401073
C -1.750263 -0.628020 1.652062
H 0.764361 -1.119677 1.655195
H 2.413723 -1.235993 2.273525
H 1.634138 0.340854 2.146047
H 2.791545 -1.815519 -1.454968
H 3.281337 -2.430665 0.121115
H 1.590502 -2.494341 -0.342673
H 3.666290 1.174637 0.777319
H 4.407685 -0.425599 0.879759
H 4.130354 0.325776 -0.699000
H 2.160947 2.129061 0.359198
H 1.290322 2.431268 -1.156433
H 0.000015 1.484989 1.505510
H 0.000001 3.138863 0.892022
H -2.160944 2.129024 0.359210
H -1.290329 2.431254 -1.156422
H -4.130301 0.326023 -0.698866
H -4.407634 -0.425405 0.879869
H -3.666059 1.174750 0.777473
H -1.590756 -2.494406 -0.342828
H -3.281552 -2.430564 0.121068
H -2.791797 -1.815397 -1.455014
H -1.633934 0.340680 2.146044
H -2.413718 -1.236070 2.273491
H -0.764373 -1.119945 1.655084