14

C -2.203618 -0.027283 -0.000384
C -0.721701 -0.097492 -0.000382
N -0.003007 -1.189458 0.012831
C 1.438127 -0.821153 0.015095
C 1.482240 0.737263 -0.002386
N 0.037477 1.138461 -0.097150
H -2.647803 -1.032070 -0.111063
H -2.594913 0.400617 0.932735
H -2.574019 0.586268 -0.837140
H 1.928785 -1.256322 0.906606
H 1.926533 -1.257500 -0.878871
H 1.986309 1.154347 0.885942
H 2.002624 1.120346 -0.903113
H -0.239096 1.893281 0.523484