61

N -0.461313 1.168184 -1.567069
C -1.606873 0.509196 -1.114053
C -2.763116 1.121292 -0.759816
C -3.974154 0.382479 -0.408759
C -5.231351 0.997494 -0.582482
C -6.402433 0.317789 -0.248107
C -6.343874 -0.981705 0.267806
C -5.101423 -1.596173 0.448776
C -3.923863 -0.923322 0.116741
C -0.354719 2.655738 -1.482315
C 1.112126 2.988940 -1.800903
C 1.815797 1.648362 -2.078276
C 0.883146 0.525683 -1.559857
C 1.369251 -0.079602 -0.178846
C 0.561753 -1.327195 0.202958
C 0.166651 -2.237720 -0.793466
C -0.533836 -3.399056 -0.462852
C -0.834567 -3.682659 0.873029
C -0.410161 -2.805059 1.873671
C 0.293012 -1.642435 1.543465
C 2.788627 -0.658911 -0.292296
C 3.518220 -0.914549 0.883756
C 4.791485 -1.481798 0.823755
C 5.355571 -1.817264 -0.411990
C 4.628384 -1.591654 -1.582118
C 3.350733 -1.023757 -1.523706
C 1.289022 1.045982 0.851333
C 0.081530 1.333360 1.509952
C -0.001702 2.389992 2.419917
C 1.117414 3.185104 2.682375
C 2.318579 2.919260 2.019696
C 2.402934 1.862955 1.108661
H -1.546432 -0.589319 -1.146102
H -2.857733 2.203587 -0.736867
H -5.286714 2.005232 -0.986625
H -7.367594 0.800623 -0.389994
H -7.257874 -1.508066 0.526938
H -5.049891 -2.605254 0.853501
H -2.963712 -1.411163 0.274968
H -1.052308 3.094866 -2.226498
H -0.646774 3.034074 -0.479104
H 1.192036 3.665795 -2.667394
H 1.586005 3.508556 -0.947647
H 1.984793 1.520928 -3.162698
H 2.810867 1.618916 -1.602595
H 0.844037 -0.319518 -2.299442
H 0.412248 -2.042410 -1.838961
H -0.842119 -4.087667 -1.248415
H -1.385924 -4.584244 1.131047
H -0.623060 -3.027078 2.918693
H 0.636792 -0.988976 2.346190
H 3.084021 -0.674213 1.855241
H 5.344844 -1.668923 1.742956
H 6.349061 -2.257719 -0.458733
H 5.052718 -1.863171 -2.547596
H 2.802175 -0.883309 -2.453440
H -0.813249 0.738413 1.309049
H -0.946101 2.593238 2.923629
H 1.052976 4.004888 3.394185
H 3.194350 3.536695 2.212282
H 3.348784 1.683325 0.596615