34

C 0.135334 -4.458659 0.000000
C 0.923571 -3.147172 0.000000
C -0.003730 -1.923334 0.000000
C 0.795169 -0.614427 0.000000
C 0.000000 0.664351 0.000000
C 0.773360 1.851564 0.000000
O 2.175198 1.529309 0.000000
C 3.070473 2.665330 0.000000
C 4.467216 2.058199 0.000000
O 0.529556 3.049575 0.000000
C -1.405219 0.770389 0.000000
O -2.076546 -0.494579 0.000000
C -3.523365 -0.421409 0.000000
C -3.979499 -1.874429 0.000000
O -2.165964 1.733466 0.000000
H -0.511815 -4.525756 0.881389
H -0.511815 -4.525756 -0.881389
H 0.800785 -5.325302 0.000000
H 1.588569 -3.110045 0.883381
H 1.588569 -3.110045 -0.883381
H -0.678858 -1.945159 -0.878107
H -0.678858 -1.945159 0.878107
H 1.467704 -0.598671 0.885457
H 1.467704 -0.598671 -0.885457
H 2.864244 3.271855 -0.898542
H 2.864244 3.271855 0.898542
H 4.603623 1.416156 -0.878958
H 5.240049 2.828680 0.000000
H 4.603623 1.416156 0.878958
H -3.844679 0.132627 0.898390
H -3.844679 0.132627 -0.898390
H -3.584101 -2.398505 -0.878878
H -3.584101 -2.398505 0.878878
H -5.068015 -1.952972 0.000000