14

N 1.643863 1.021559 -0.000010
H 2.071726 1.934394 -0.000014
N 2.377550 -0.147202 -0.000282
N 1.607617 -1.175869 0.000161
C 0.255269 -0.742508 -0.000016
C -0.968007 -1.440004 0.000005
C -2.127235 -0.687493 0.000026
C -2.098872 0.736831 0.000036
C -0.914177 1.449778 0.000040
C 0.276231 0.697426 0.000015
H -0.973463 -2.529490 0.000072
H -3.097992 -1.183262 0.000085
H -3.051236 1.269760 0.000078
H -0.891499 2.535008 0.000060