21

C -1.690244 -0.570244 1.270120
C -1.332382 0.184041 -0.000008
C -1.690166 -0.570126 -1.270228
C -1.825627 1.628249 0.000044
O 0.148477 0.422310 0.000055
C 1.012538 -0.643542 0.000017
O 0.706344 -1.819197 0.000045
N 2.326349 -0.172009 -0.000157
N 2.696322 1.192596 0.000088
H -1.256491 -1.584936 1.266525
H -1.309433 -0.066085 2.165698
H -2.773751 -0.680969 1.382675
H -2.773664 -0.680887 -1.382835
H -1.309343 -0.065857 -2.165739
H -1.256374 -1.584803 -1.266724
H -1.467545 2.174590 0.881602
H -1.467336 2.174716 -0.881353
H -2.920287 1.670298 -0.000084
H 3.117045 -0.820695 0.000217
H 2.287396 1.662621 0.820549
H 2.287805 1.662724 -0.820519