52

C -3.498433 -2.991823 -0.964059
C -2.289050 -2.305767 -0.306163
C -1.178765 -3.344337 -0.056859
O -1.808948 -1.364707 -1.242782
B -1.267910 -0.182155 -0.494493
C 0.324320 -0.324991 -0.306738
C 0.962342 0.194962 0.828774
C 2.341814 0.085003 0.982617
C 3.106072 -0.559102 -0.006680
C 4.581652 -0.701699 0.122409
F 5.036938 -1.974986 0.143777
F 5.306470 -0.155588 -0.879123
F 5.163214 -0.172718 1.218385
C 2.471076 -1.086349 -1.147587
C 1.092200 -0.967496 -1.290493
C -1.641027 1.172017 -1.335642
C -3.144609 1.209637 -1.588208
C -1.170750 2.381980 -0.591070
C -0.314673 3.313685 -1.204083
C 0.108510 4.454413 -0.514009
C -0.316067 4.684826 0.795854
C -1.159412 3.754799 1.420492
C -1.580597 2.617112 0.737474
O -1.923452 -0.246243 0.854014
C -2.647364 -1.450229 0.983329
C -4.139025 -1.068137 1.066569
C -2.208713 -2.099826 2.307529
H -4.022211 -3.643009 -0.265164
H -4.193873 -2.237039 -1.347843
H -3.172809 -3.582257 -1.825747
H -0.816674 -3.730092 -1.014892
H -0.315978 -2.865637 0.424696
H -1.513940 -4.176342 0.558895
H 0.350891 0.687959 1.586885
H 2.817023 0.500419 1.868093
H 3.056123 -1.587068 -1.915741
H 0.579817 -1.381795 -2.159144
H -1.104193 1.057509 -2.301505
H -3.695612 1.252561 -0.640459
H -3.437967 2.063386 -2.201802
H -3.448979 0.282982 -2.094578
H 0.029484 3.139525 -2.219355
H 0.773985 5.161158 -1.001038
H 0.010273 5.568731 1.330419
H -1.479176 3.920179 2.445246
H -2.209059 1.863562 1.227251
H -4.455754 -0.611340 0.121210
H -4.775593 -1.922844 1.286289
H -4.278141 -0.309200 1.842439
H -2.512660 -1.477195 3.153610
H -2.628616 -3.097048 2.430430
H -1.114206 -2.161177 2.346315