47

F -0.966493 2.324157 -1.586170
C 0.253302 2.515110 -1.093276
C 0.921176 3.690982 -1.486106
F 0.331842 4.551235 -2.310408
C 2.210973 3.951590 -1.005696
F 2.851179 5.054443 -1.366422
C 2.817930 3.031803 -0.138018
F 4.041843 3.262670 0.326683
C 2.124318 1.867749 0.234521
F 2.746290 1.023002 1.053369
C 0.827312 1.574249 -0.224561
Si -0.025114 0.003363 0.324490
C 0.930089 -1.492568 -0.258022
C 1.783315 -1.471791 -1.373390
F 1.944666 -0.353789 -2.075489
C 2.494858 -2.606797 -1.803931
F 3.293460 -2.534810 -2.864150
C 2.357023 -3.816968 -1.110385
F 3.021230 -4.894003 -1.504352
C 1.508093 -3.876623 0.003823
F 1.364154 -5.017754 0.670389
C 0.812009 -2.724016 0.409438
F 0.014419 -2.831289 1.468035
O -0.047991 -0.006681 1.905451
C -0.100083 -0.039487 3.251261
C -1.074931 -0.604478 3.981748
C -0.763163 -0.422636 5.444988
C 0.578641 0.363413 5.496144
C 1.016351 0.605200 4.029949
C -1.788077 -0.069276 -0.287033
C -2.175088 -0.779224 -1.434955
F -1.272686 -1.442097 -2.152285
C -3.508523 -0.827595 -1.882198
F -3.824326 -1.517127 -2.973936
C -4.504493 -0.143639 -1.171979
F -5.764357 -0.180632 -1.581475
C -4.153822 0.580877 -0.023930
F -5.086362 1.236920 0.659574
C -2.812509 0.608771 0.397103
F -2.527520 1.315787 1.486641
H -1.956772 -1.116629 3.646537
H -1.571715 0.130318 5.955990
H -0.675695 -1.398976 5.954778
H 0.451258 1.319044 6.029706
H 1.345096 -0.206671 6.045299
H 1.993434 0.141856 3.804625
H 1.115674 1.679121 3.793578