31

C 2.580941 -1.668740 -0.348921
C 2.446945 -0.240534 0.062250
C 3.403227 0.591335 0.483557
O 1.172494 0.191766 -0.029699
Si -0.324926 0.778727 -0.142214
C -0.554565 2.103456 1.141782
C -0.555087 1.493540 -1.843476
C -1.534502 -0.677560 0.158538
C -1.352042 -1.761362 -0.926399
C -1.276490 -1.304338 1.545996
C -2.986252 -0.148893 0.103821
H 3.610370 -2.033399 -0.240505
H 2.283225 -1.806217 -1.399711
H 1.927396 -2.317390 0.254660
H 4.435187 0.306690 0.578199
H 3.210492 1.615066 0.761625
H 0.165871 2.922094 0.995695
H -0.414250 1.712416 2.159841
H -1.570215 2.523056 1.067386
H 0.158238 2.311499 -2.025219
H -1.574487 1.900630 -1.937322
H -0.409141 0.740510 -2.630386
H -0.328924 -2.154252 -0.944508
H -1.581128 -1.382230 -1.929146
H -2.021618 -2.610260 -0.744970
H -0.249899 -1.677185 1.642927
H -1.947627 -2.152986 1.721812
H -1.446080 -0.588877 2.359370
H -3.228314 0.298699 -0.867263
H -3.183510 0.600790 0.879179
H -3.699628 -0.966380 0.264044