31

C 4.582087 0.015271 0.127650
N 3.162350 -0.057245 -0.330438
C 2.445710 1.220676 -0.017930
C 1.033409 1.147750 -0.618772
C 2.480158 -1.246760 0.286082
C 0.981874 -1.156228 0.303958
C 0.303341 -0.073083 -0.116231
N -1.130937 0.009943 -0.258169
C -1.756207 1.077035 0.591607
C -3.222579 1.242654 0.162064
O -3.929480 -0.007885 0.286775
C -3.334470 -1.054092 -0.508775
C -1.870452 -1.282476 -0.097938
H 4.717191 0.177440 1.206919
H 5.095969 -0.919132 -0.150444
H 5.089836 0.830362 -0.412944
H 2.386811 1.434873 1.070355
H 3.008380 2.055734 -0.487800
H 0.480053 2.083174 -0.409816
H 1.098995 1.072156 -1.728739
H 2.783199 -2.121029 -0.339995
H 2.831410 -1.452207 1.323973
H 0.496982 -2.050879 0.680592
H -1.703525 0.831523 1.674739
H -1.204307 2.030679 0.440105
H -3.785359 1.903222 0.844370
H -3.306771 1.601108 -0.879171
H -3.973447 -1.922964 -0.273755
H -3.423220 -0.787587 -1.576870
H -1.406588 -2.040648 -0.766443
H -1.826891 -1.676112 0.940693