45

C -2.428280 -0.922253 0.809311
O -1.189167 -0.601533 0.548671
Si 0.248354 -0.009653 0.010330
C -0.045004 1.624560 -0.816846
C -1.313070 2.000956 -1.288080
C -1.491856 3.230117 -1.934050
C -0.406781 4.092660 -2.112614
C 0.859661 3.728668 -1.642613
C 1.040565 2.501554 -0.996527
C 1.340045 0.204584 1.497313
C 2.563332 -0.474106 1.623163
C 3.375823 -0.270626 2.744949
C 2.972398 0.610280 3.752263
C 1.755165 1.289608 3.638051
C 0.942786 1.088652 2.517174
C 0.953843 -1.253647 -1.174356
C 1.089350 -2.599960 -0.789328
C 1.633035 -3.539181 -1.671359
C 2.045030 -3.144524 -2.948663
C 1.909171 -1.810970 -3.343355
C 1.363580 -0.869567 -2.461973
C -2.977721 -1.798890 1.673359
C -4.472572 -1.734782 1.526240
C -4.681521 -0.666815 0.425753
O -3.337960 -0.195204 0.022350
H -2.177558 1.339322 -1.151169
H -2.477857 3.513365 -2.296010
H -0.546513 5.047860 -2.615115
H 1.703230 4.401916 -1.777504
H 2.036482 2.238724 -0.628722
H 2.898228 -1.169711 0.849351
H 4.322031 -0.800225 2.832523
H 3.603978 0.767374 4.624591
H 1.439550 1.974770 4.421971
H -0.004590 1.630326 2.446570
H 0.767768 -2.929236 0.202163
H 1.732963 -4.578341 -1.365427
H 2.468131 -3.876055 -3.634514
H 2.224444 -1.503109 -4.338088
H 1.257636 0.166298 -2.796401
H -2.485788 -2.448662 2.364621
H -4.892167 -2.714109 1.233312
H -4.960429 -1.448285 2.475304
H -5.129090 -1.058110 -0.498652
H -5.202258 0.237028 0.771551