14

N 0.000002 -1.626954 1.172186
C 0.000040 -2.360122 0.000000
N 0.000002 -1.626954 -1.172186
C 0.000002 -0.303917 -0.733505
C -0.000008 0.913757 -1.435733
C -0.000014 2.095324 -0.708778
C -0.000014 2.095324 0.708778
C -0.000008 0.913757 1.435733
C 0.000002 -0.303917 0.733505
H 0.000028 -3.436735 0.000000
H -0.000011 0.909568 -2.518867
H -0.000023 3.046864 -1.226939
H -0.000023 3.046864 1.226939
H -0.000011 0.909568 2.518867