16

Cl -3.117422 -0.382722 -0.000030
C -1.428957 -0.004252 -0.000021
C -1.065770 1.366188 0.000002
C 0.268418 1.730513 0.000023
C 1.225787 0.695413 0.000021
C 0.851301 -0.694681 0.000000
C 2.068915 -1.460979 0.000039
C 3.126186 -0.568221 -0.000005
N 2.629423 0.751455 0.000030
C -0.512948 -1.039998 -0.000022
H -1.848902 2.124646 0.000005
H 0.571728 2.772955 0.000037
H 2.125402 -2.530964 0.000050
H 4.184216 -0.766566 -0.000013
H 3.181040 1.585921 0.000025
H -0.820865 -2.083787 -0.000023