15

C -2.007703 -0.052646 -0.238979
N -0.755135 -0.349000 0.522690
N 0.377870 -0.015107 -0.291787
C 0.940841 1.342829 0.011128
C 1.421047 -1.067596 -0.065397
H -2.853526 -0.474351 0.325524
H -2.193437 1.013641 -0.428252
H -1.969406 -0.562415 -1.218159
H -0.776567 0.176882 1.412363
H 1.315778 1.476709 1.035242
H 1.772041 1.537852 -0.685191
H 0.172629 2.105545 -0.187725
H 0.966489 -2.058472 -0.242588
H 2.219462 -0.925954 -0.808702
H 1.862284 -1.076216 0.940659