21

O -2.894914 1.605554 -0.651607
S -1.800769 0.639416 -0.603999
C -0.529850 1.138834 0.243616
H -0.718815 1.915662 0.986204
C 0.801832 0.710232 0.145805
C 1.788479 1.250446 1.034525
C 3.108327 0.851115 0.972184
C 3.526482 -0.105877 0.021997
C 4.882778 -0.513725 -0.039249
N 5.994526 -0.845233 -0.087582
C 2.569645 -0.647897 -0.867220
C 1.249428 -0.252983 -0.810860
C -2.552941 -0.712105 0.483727
F -2.897964 -0.295686 1.710819
F -3.672207 -1.264034 0.000207
F -1.743452 -1.754668 0.709444
O -1.530805 -0.094017 -1.836449
H 1.474668 1.984447 1.768625
H 3.841468 1.272468 1.658806
H 2.888593 -1.384717 -1.604222
H 0.527991 -0.672920 -1.519274