20

C 2.264936 -0.514343 -0.466825
C 1.076707 -0.809594 0.428756
O 0.616012 0.372779 1.104234
C -0.505265 0.945306 0.386606
H -1.198084 1.246106 1.201249
C -0.039888 2.141022 -0.427062
C -1.040469 -0.227135 -0.481720
H -1.079942 0.011948 -1.564635
C -2.349725 -0.809546 0.020494
O -0.035443 -1.270396 -0.362107
H 3.102132 -0.108084 0.113168
H 2.604518 -1.421705 -0.980738
H 2.014125 0.221929 -1.240228
H 1.258954 -1.565716 1.215047
H 0.659976 1.851477 -1.221182
H -0.878674 2.672342 -0.887960
H 0.498310 2.852959 0.214937
H -3.185904 -0.117162 -0.115476
H -2.586632 -1.739205 -0.516604
H -2.291106 -1.078215 1.083913