30

N 4.452533 -0.808098 0.677386
C 3.283054 -0.950917 -0.075026
O 3.164223 -1.961235 -0.764514
C 2.251847 0.102706 0.003572
C 1.179289 -0.016856 -0.826278
N 0.173898 0.958069 -0.892914
C -1.105375 0.625027 -1.573485
C -2.132081 0.016505 -0.645120
C -3.330777 0.695812 -0.387657
C -4.287985 0.127559 0.458422
C -4.051233 -1.115722 1.052482
C -2.853326 -1.792310 0.798707
C -1.895014 -1.230226 -0.048537
C 0.151561 1.980262 0.107422
C 1.178528 2.143736 0.958243
C 2.385226 1.247943 0.968695
H 5.167898 -1.514404 0.605026
H 4.676352 0.005513 1.213937
H 1.094080 -0.865732 -1.523659
H -1.493529 1.559045 -2.045421
H -0.899665 -0.072672 -2.420509
H -3.523235 1.664676 -0.844100
H -5.219349 0.656317 0.655250
H -4.796771 -1.556429 1.711924
H -2.665120 -2.760043 1.262518
H -0.961776 -1.760943 -0.237403
H -0.731468 2.622017 0.098049
H 1.185241 2.948814 1.687745
H 2.542669 0.859530 1.999347
H 3.283590 1.853273 0.713465