25

Si 0.000001 1.555639 -0.000003
H 0.036286 2.413919 1.202521
H -0.036282 2.413915 -1.202529
C 1.541122 0.503058 -0.052281
C 1.632926 -0.553262 -0.974229
C 2.787856 -1.339479 -1.045018
C 3.865957 -1.076335 -0.193839
C 3.786485 -0.028321 0.727355
C 2.628792 0.756109 0.797390
C -1.541122 0.503061 0.052279
C -2.628784 0.756098 -0.797407
C -3.786478 -0.028331 -0.727368
C -3.865958 -1.076329 0.193842
C -2.787866 -1.339459 1.045036
C -1.632935 -0.553243 0.974245
H 0.801210 -0.777388 -1.647860
H 2.847710 -2.155497 -1.761961
H 4.765402 -1.687187 -0.248989
H 4.623863 0.178006 1.390335
H 2.589723 1.567967 1.527281
H -2.589708 1.567943 -1.527311
H -4.623849 0.177985 -1.390360
H -4.765404 -1.687181 0.248995
H -2.847726 -2.155464 1.761993
H -0.801225 -0.777358 1.647887