43

C 3.819262 3.825894 -0.575491
C 2.861974 2.921621 0.087320
S 2.227030 1.525682 -0.786219
C 2.336619 2.959496 1.340154
C 1.408543 1.876658 1.618791
C 1.235606 1.023291 0.585986
B 0.384312 -0.267104 0.260905
C -1.170500 0.097852 0.115345
C -2.010200 0.014128 1.231673
C -3.369299 0.330394 1.123679
C -3.849738 0.725513 -0.123660
Cl -5.549529 1.122145 -0.275704
C -3.042474 0.816566 -1.256688
C -1.687089 0.495340 -1.123162
O 0.893716 -0.845767 -1.026484
C 1.415120 -2.137286 -0.770394
C 0.965239 -3.037788 -1.931247
C 2.949138 -2.023654 -0.749664
C 0.811044 -2.545991 0.639266
C -0.551179 -3.254535 0.524304
C 1.763415 -3.367763 1.519755
O 0.610246 -1.312371 1.305272
H 4.727184 3.287704 -0.884920
H 3.380761 4.275083 -1.479032
H 4.129538 4.646855 0.084044
H 2.557691 3.704318 2.085075
H 0.918647 1.786015 2.573924
H -1.589360 -0.311258 2.183434
H -4.028130 0.270075 1.982726
H -3.452403 1.127640 -2.211247
H -1.017082 0.542932 -1.982956
H 1.466503 -2.739694 -2.856923
H 1.178287 -4.087570 -1.733193
H -0.109973 -2.913502 -2.105882
H 3.262285 -1.411847 0.107246
H 3.442776 -2.991411 -0.702755
H 3.287987 -1.487144 -1.642592
H -0.464389 -4.270884 0.146304
H -1.037447 -3.275226 1.504496
H -1.215356 -2.679645 -0.135197
H 2.616770 -2.748592 1.822682
H 1.260360 -3.676125 2.440791
H 2.128711 -4.252892 0.999825