14

C -2.390404 0.000033 0.002570
C -0.899152 0.000080 -0.007079
C -0.182296 -1.207323 -0.003746
C 1.219340 -1.163345 0.000936
N 1.922706 -0.000066 0.002958
C 1.219461 1.163268 0.000947
C -0.182188 1.207394 -0.003750
H -2.771679 -0.003487 1.035824
H -2.813387 0.884708 -0.493134
H -2.813159 -0.881418 -0.499070
H -0.700492 -2.161679 -0.004571
H 1.815631 -2.083126 0.002784
H 1.815833 2.082998 0.002777
H -0.700256 2.161819 -0.004585