31

C -0.632175 0.823136 1.888416
N -1.419191 0.595311 0.636275
C -1.553494 1.856344 -0.186761
C -1.079465 1.463785 -1.617829
O -1.100584 0.057348 -1.700058
B -0.702366 -0.484877 -0.380762
O -1.415788 -1.733227 -0.120870
C -2.765821 -1.388358 0.132201
C -2.756769 -0.054687 0.934616
C 0.854063 -0.685811 -0.190236
O 1.633816 0.480540 -0.019486
C 2.973092 0.039490 0.082027
C 3.955367 1.118916 0.257546
C 3.022901 -1.324288 -0.015209
C 1.661324 -1.786069 -0.188125
H -1.122679 1.516101 2.584841
H -0.453926 -0.141009 2.404392
H 0.377647 1.217701 1.639375
H -2.596023 2.226911 -0.202669
H -0.927028 2.674702 0.219450
H -1.765435 1.823984 -2.402855
H -0.050123 1.825844 -1.807832
H -3.299127 -1.276209 -0.830643
H -3.182200 -2.228256 0.712962
H -2.872165 -0.255355 2.017800
H -3.603103 0.591706 0.633561
H 4.489752 1.025512 1.214809
H 4.709591 1.102516 -0.545316
H 3.477789 2.109962 0.235846
H 3.884220 -1.957968 0.020008
H 1.365291 -2.810965 -0.300409