46

C -0.134209 -1.588126 0.089431
C -1.541529 -1.723895 0.694261
N -2.370521 -0.551732 0.318080
C -1.708868 0.669672 -0.017825
N -0.446067 0.904625 -0.011755
C 0.485592 -0.190678 0.352103
H 0.720683 -0.093102 1.446136
C 1.788324 0.005883 -0.476657
C 2.546357 1.282153 -0.158995
C 2.365631 1.999759 1.030383
C 3.110020 3.158935 1.273574
C 4.043425 3.608399 0.336571
C 4.228072 2.894760 -0.852888
C 3.485530 1.739418 -1.101206
C 2.712336 -1.181086 -0.280932
C 2.928672 -2.078037 -1.337631
C 3.772674 -3.178476 -1.161871
C 4.404982 -3.391493 0.066603
C 4.195204 -2.495392 1.120207
C 3.353473 -1.394013 0.949275
S -2.943131 1.882125 -0.463934
C -4.255427 0.738433 -0.237835
C -5.607947 0.968376 -0.417268
C -6.500827 -0.088490 -0.181535
C -6.030015 -1.341500 0.226964
C -4.664369 -1.585867 0.413478
C -3.771958 -0.533223 0.176458
H 0.523423 -2.377761 0.503057
H -0.174786 -1.776183 -1.002474
H -2.023526 -2.660215 0.336308
H -1.488004 -1.778429 1.806351
H 1.477656 0.069578 -1.556462
H 1.627754 1.676400 1.763042
H 2.955495 3.714109 2.197057
H 4.620730 4.509546 0.527716
H 4.951942 3.241955 -1.587811
H 3.637910 1.189649 -2.027895
H 2.445358 -1.917976 -2.299420
H 3.939596 -3.869632 -1.986471
H 5.062342 -4.247656 0.201327
H 4.693490 -2.653385 2.075480
H 3.206770 -0.688304 1.766208
H -5.977210 1.943366 -0.733986
H -7.568039 0.070732 -0.317800
H -6.741292 -2.148952 0.405854
H -4.314935 -2.561052 0.734465