52

C -4.477874 -1.706865 -0.575908
C -3.141842 -1.886661 0.170701
C -2.981679 -3.345472 0.622963
O -2.101241 -1.620671 -0.747510
B -1.583529 -0.230177 -0.510823
C -0.010367 -0.338221 -0.193281
C 0.606992 0.610416 0.629517
C 1.977345 0.506648 0.905880
C 2.670216 1.496919 1.791193
F 3.254496 0.958184 2.884367
F 3.690728 2.161587 1.209962
F 1.926559 2.486940 2.312924
C 2.740159 -0.537780 0.358523
C 2.112932 -1.480541 -0.462844
C 2.887798 -2.616324 -1.056785
F 4.226248 -2.596579 -0.887858
F 2.551834 -3.835194 -0.588394
F 2.765389 -2.759231 -2.391056
C 0.736448 -1.384959 -0.734840
C -1.897968 0.696746 -1.820843
C -1.331190 2.052971 -1.667283
C -0.366167 2.548650 -2.563828
C 0.146786 3.840127 -2.412610
C -0.292147 4.658861 -1.370053
C -1.243461 4.168962 -0.463505
C -1.757059 2.884082 -0.607790
O -2.332912 0.281956 0.681554
C -2.938690 -0.821121 1.328894
C -4.245141 -0.305697 1.949449
C -1.984940 -1.313037 2.432527
H -5.331995 -2.040676 0.009871
H -4.613060 -0.651995 -0.843437
H -4.446483 -2.266052 -1.516295
H -3.199429 -4.027111 -0.204605
H -1.942325 -3.535785 0.916213
H -3.637701 -3.582532 1.460138
H -0.010803 1.415360 1.041500
H 3.804164 -0.606128 0.577397
H 0.223077 -2.125199 -1.356541
H -1.517695 0.146041 -2.689641
H -2.996517 0.710319 -1.882870
H -0.009784 1.915619 -3.370593
H 0.895537 4.205839 -3.109955
H 0.106705 5.659153 -1.253079
H -1.574544 4.795290 0.360520
H -2.471324 2.476385 0.114264
H -4.805511 0.281278 1.212778
H -4.870320 -1.124192 2.306089
H -4.029751 0.366872 2.785381
H -1.665377 -0.464710 3.046388
H -2.439948 -2.064769 3.074690
H -1.074228 -1.729979 1.983585