49

C 5.799896 -1.325767 -0.651955
C 4.352699 -1.577944 -0.393923
C 3.740185 -2.761163 -0.844048
C 2.385002 -2.979686 -0.603786
C 3.588934 -0.623031 0.300380
C 2.234091 -0.847631 0.539892
C 1.626074 -2.027514 0.090467
S -0.033651 -2.330409 0.386863
N -0.852032 -1.289743 -0.763183
C -2.210901 -1.676813 -1.241585
C -3.366499 -1.045009 -0.499580
C -4.461718 -0.573054 -1.240880
C -5.565009 -0.017478 -0.588309
C -5.581850 0.075765 0.807037
C -4.490194 -0.389445 1.546157
C -3.385578 -0.950247 0.898288
C -0.566164 0.033886 -0.717024
C -0.241545 1.203148 -0.715377
C 0.149026 2.555032 -0.664729
C -0.213378 3.453630 -1.677768
C 0.162683 4.800515 -1.606212
C 0.908325 5.264773 -0.522375
C 1.293258 4.394789 0.504952
C 0.916015 3.051420 0.429036
O 1.254609 2.083284 1.352551
C 1.807453 2.523801 2.616711
O -0.389887 -3.668908 -0.043270
O -0.407274 -1.904985 1.716151
H 5.937287 -0.462468 -1.321948
H 6.343323 -1.099060 0.277490
H 6.309119 -2.178568 -1.120882
H 4.321893 -3.506748 -1.382639
H 1.911457 -3.904584 -0.957064
H 4.050966 0.300702 0.644441
H 1.648380 -0.085561 1.076479
H -2.260962 -1.424733 -2.328885
H -2.290714 -2.794154 -1.178261
H -4.456203 -0.635981 -2.327113
H -6.411406 0.345352 -1.168141
H -6.440101 0.509990 1.314779
H -4.495777 -0.316588 2.632900
H -2.538171 -1.303397 1.496682
H -0.800120 3.093956 -2.523765
H -0.131942 5.483750 -2.399509
H 1.197292 6.314014 -0.469395
H 1.874913 4.770732 1.339818
H 2.804289 2.945548 2.465308
H 1.132372 3.232991 3.105097
H 1.852331 1.582557 3.181419