15

C 1.441105 -0.673201 0.185863
C 1.441105 0.673201 0.185863
C 0.351655 1.523036 -0.286831
C -0.954605 1.233517 -0.181897
C -1.480096 0.000000 0.493590
C -0.954605 -1.233517 -0.181897
C 0.351656 -1.523036 -0.286831
H 2.326500 -1.217628 0.526298
H 2.326499 1.217629 0.526298
H 0.674193 2.454354 -0.759984
H -1.713790 1.901749 -0.585954
H -1.163877 0.000000 1.562816
H -2.587223 0.000000 0.509306
H -1.713789 -1.901750 -0.585954
H 0.674194 -2.454354 -0.759984