24

C -3.670486 -0.524781 0.281823
Si -1.962322 -0.134540 -0.359002
H -1.723212 -0.948407 -1.556390
C -1.801338 1.662888 -0.813230
C -0.689403 -0.628894 0.947451
C 0.702323 -0.344564 0.497746
C 1.323149 0.876558 0.824825
C 2.630176 1.136255 0.409242
C 3.338160 0.187447 -0.335446
C 2.727657 -1.027260 -0.663272
C 1.421150 -1.296127 -0.251084
H -4.430673 -0.274303 -0.475922
H -3.778390 -1.595111 0.514861
H -3.919042 0.038875 1.191671
H -0.772455 1.876752 -1.152557
H -2.483951 1.929837 -1.634943
H -2.015652 2.337757 0.026588
H -0.927402 -0.102931 1.899005
H -0.833926 -1.712400 1.168388
H 0.781346 1.621889 1.401809
H 3.101206 2.083080 0.667831
H 4.355508 0.392312 -0.656276
H 3.274264 -1.769204 -1.243055
H 0.956556 -2.243718 -0.513311