46

F 1.122067 -0.737833 -1.777540
C 1.003985 -0.228126 -0.504283
C 2.424713 -0.138024 0.050682
C 3.474612 0.252779 -0.794904
C 4.779316 0.350947 -0.302120
C 5.048042 0.073373 1.041016
C 4.003089 -0.297416 1.892501
C 2.698634 -0.399804 1.401822
C 0.361475 1.149646 -0.601208
C -0.585849 1.427530 -1.597315
C -1.182003 2.690762 -1.668635
C -0.843714 3.682566 -0.744441
C 0.094883 3.407179 0.255178
C 0.694775 2.147794 0.327756
C 0.099091 -1.220220 0.311325
H 0.021586 -0.810625 1.353294
C 0.662802 -2.659273 0.336201
C -0.132283 -3.463474 -0.704556
C -1.370166 -2.620305 -1.061134
N -1.253206 -1.330549 -0.310983
C -2.382396 -0.751141 0.287738
C -2.257264 0.268903 1.264351
C -3.411587 0.882642 1.753533
N -4.669102 0.548913 1.350132
C -4.782216 -0.429531 0.411492
C -3.688013 -1.101013 -0.140211
H 3.283591 0.491729 -1.842297
H 5.587235 0.649304 -0.969179
H 6.064437 0.149752 1.423044
H 4.204352 -0.505998 2.942177
H 1.898825 -0.680910 2.085894
H -0.879734 0.658376 -2.312852
H -1.918526 2.896648 -2.443858
H -1.311322 4.663836 -0.799663
H 0.360498 4.175898 0.978560
H 1.429658 1.953593 1.108684
H 1.745887 -2.687393 0.119372
H 0.540483 -3.095750 1.343521
H 0.481794 -3.652498 -1.604046
H -0.419672 -4.452370 -0.309784
H -1.397596 -2.379272 -2.146317
H -2.309255 -3.156750 -0.812081
H -1.281827 0.598546 1.609182
H -3.349001 1.679500 2.504196
H -5.804868 -0.674189 0.100233
H -3.848541 -1.864236 -0.892997