14

N 1.838690 -1.885911 -0.097573
C 1.189660 -0.630748 -0.006658
N 1.972017 0.489391 0.033174
C 1.321792 1.716943 0.010877
N 0.002235 1.960511 -0.014859
C -0.804020 0.831489 -0.016504
N -2.174517 0.709454 -0.006566
C -2.382626 -0.674412 0.013946
N -1.255364 -1.451674 0.017241
C -0.217048 -0.521299 -0.006681
H 2.783915 -1.913226 0.254429
H 1.271412 -2.668068 0.206174
H 1.993977 2.584224 0.022172
H -3.377279 -1.087161 0.027425