42

Si -2.372827 -1.124329 -0.016830
Si 2.370597 -1.126405 0.016779
O -1.403440 0.143579 0.010206
O 1.396011 0.137854 -0.009518
C -0.670204 3.755666 0.368293
C 0.676905 3.753245 -0.367749
C -1.509697 2.525483 -0.002750
C 1.511637 2.519452 0.002133
C -0.679396 1.271734 0.008845
C 0.676373 1.268951 -0.008792
C -2.544025 -1.710276 -1.772463
C -4.034812 -0.616095 0.648980
C -1.652106 -2.471609 1.038900
C 1.542839 -2.562846 -0.819152
C 3.938988 -0.685720 -0.882900
C 2.752059 -1.550498 1.786184
H -0.497883 3.772894 1.462718
H -1.232692 4.677704 0.130907
H 0.504604 3.772085 -1.462153
H 1.243077 4.672839 -0.129626
H -2.364479 2.411383 0.696384
H -1.959871 2.646844 -1.010660
H 2.365082 2.402138 -0.698119
H 1.963402 2.638743 1.009585
H -3.186466 -2.604352 -1.797762
H -2.991551 -0.941342 -2.416937
H -1.561826 -1.974995 -2.192684
H -4.704206 -1.491460 0.631652
H -3.959316 -0.260070 1.685843
H -4.490754 0.179199 0.044540
H -0.673579 -2.796898 0.631572
H -1.486257 -2.133074 2.071212
H -2.330108 -3.337741 1.056730
H 1.256308 -2.318397 -1.851917
H 2.220631 -3.429099 -0.836773
H 0.619552 -2.847260 -0.275196
H 4.460701 0.155168 -0.407195
H 4.609640 -1.560168 -0.872937
H 3.737349 -0.417496 -1.929489
H 1.830077 -1.774545 2.343325
H 3.400656 -2.440234 1.814273
H 3.267189 -0.727974 2.300743