35

H -0.000356 -0.000194 -2.416751
Ge -0.000126 -0.000055 -0.901977
C 0.586645 1.709090 -0.242333
C 1.598813 1.789394 0.717083
C 2.016886 3.038935 1.190892
C 1.421703 4.207696 0.707493
C 0.406538 4.125343 -0.250637
C -0.011513 2.876808 -0.725661
C -1.773435 -0.346464 -0.241694
C -2.487062 -1.446512 -0.727072
C -3.777142 -1.708756 -0.251493
C -4.354406 -0.872619 0.709236
C -3.638395 0.225381 1.194668
C -2.347432 0.488104 0.720303
C 1.186690 -1.362649 -0.242125
C 0.750791 -2.277862 0.719017
C 1.623884 -3.264606 1.193017
C 2.933007 -3.334960 0.708075
C 3.368627 -2.416136 -0.251797
C 2.496393 -1.429914 -0.727011
H 2.074976 0.888730 1.109807
H 2.806296 3.098370 1.937603
H 1.746911 5.178585 1.075672
H -0.059931 5.032944 -0.628380
H -0.806153 2.838167 -1.470975
H -2.057574 -2.113916 -1.474431
H -4.331030 -2.565107 -0.630827
H -5.357662 -1.076442 1.077850
H -4.083298 0.877876 1.943393
H -1.804391 1.349377 1.114608
H -0.266788 -2.238790 1.112930
H 1.281150 -3.976803 1.941073
H 3.611214 -4.101975 1.076403
H 4.387362 -2.467077 -0.630753
H 2.859739 -0.723622 -1.473714