28

C -2.114990 -0.000234 1.339024
C -1.487004 -0.000198 0.154624
C -1.204776 1.313281 -0.534540
C 0.185965 1.518406 -1.143434
C 1.390921 1.510357 -0.187970
C 1.245761 0.770299 1.144366
C 1.246090 -0.769993 1.144332
C 1.391363 -1.509967 -0.188054
C 0.186355 -1.518336 -1.143439
C -1.204381 -1.313662 -0.534401
H -2.392105 0.893776 1.871550
H -2.391812 -0.894273 1.871650
H -1.399162 2.148481 0.173361
H -1.960618 1.433224 -1.342275
H 0.180699 2.488921 -1.682001
H 0.349103 0.751122 -1.935618
H 1.651779 2.563806 0.047471
H 2.266066 1.103367 -0.733689
H 0.321215 1.120415 1.648204
H 2.074929 1.108069 1.801361
H 0.321753 -1.120499 1.648272
H 2.075516 -1.107432 1.801162
H 1.652541 -2.563345 0.047343
H 2.266370 -1.102728 -0.733808
H 0.181338 -2.488828 -1.682048
H 0.349209 -0.750968 -1.935599
H -1.398356 -2.148843 0.173643
H -1.960285 -1.433986 -1.342023