14

O 3.431385 0.000000 0.000538
C 2.197116 0.000000 0.000431
C 1.424106 -1.245306 0.000174
C 0.065171 -1.233124 -0.000086
C -0.663435 0.000000 -0.000188
N -2.072511 0.000000 -0.000478
O -2.686418 -1.077671 -0.000312
O -2.686418 1.077671 -0.000252
C 0.065171 1.233124 -0.000019
C 1.424106 1.245306 0.000243
H 1.997065 -2.162547 0.000234
H -0.514178 -2.160174 -0.000245
H -0.514178 2.160174 -0.000126
H 1.997065 2.162547 0.000353