40

O 1.302704 -1.206206 2.185916
S 1.293896 -1.392123 0.717663
C -0.000023 -0.674568 -0.000323
S -1.294131 -1.391746 -0.718395
O -1.541674 -2.760997 -0.261793
C -2.708929 -0.478427 -0.155035
C -3.581715 0.082467 -1.085582
C -4.720488 0.774028 -0.653779
C -4.977285 0.899791 0.715426
C -4.100831 0.337878 1.649064
C -2.963403 -0.352382 1.209224
O -1.303273 -1.205086 -2.186573
C 0.000058 0.772468 -0.000142
C -0.261964 1.498055 -1.185067
C -0.263188 2.890856 -1.177731
C 0.000202 3.598807 0.000287
C 0.263535 2.890466 1.178098
C 0.262180 1.497674 1.185015
C 2.708895 -0.478582 0.155096
C 3.581939 0.081150 1.086095
C 4.720813 0.772875 0.654854
C 4.977479 0.899949 -0.714266
C 4.100796 0.339166 -1.648351
C 2.963245 -0.351261 -1.209065
O 1.541547 -2.761167 0.260451
H -3.369180 -0.019482 -2.155993
H -5.397786 1.211700 -1.379710
H -5.859121 1.437183 1.054846
H -4.296077 0.437277 2.712268
H -2.275306 -0.786738 1.940651
H -0.457746 0.951583 -2.112724
H -0.467470 3.431884 -2.098639
H 0.000243 4.681409 0.000464
H 0.467871 3.431202 2.099163
H 0.457921 0.950905 2.112500
H 3.369485 -0.021844 2.156417
H 5.398314 1.209681 1.381115
H 5.859391 1.437509 -1.053221
H 4.295922 0.439558 -2.711485
H 2.274980 -0.784718 -1.940863