26

C 2.988769 0.312096 -0.945172
C 2.027169 -0.431670 -0.016165
C 2.077997 0.123665 1.407220
C 0.600117 -0.354889 -0.599278
O -0.210043 -1.323635 0.097788
C -1.461629 -0.725005 0.517089
H -1.593099 -1.100313 1.554923
C -2.564251 -1.225775 -0.399521
C -1.174029 0.801312 0.476521
H -0.849762 1.169252 1.475386
C -2.249647 1.688363 -0.118759
O -0.008221 0.930688 -0.382841
H 2.692575 1.363561 -1.060089
H 4.009204 0.303624 -0.546436
H 3.022744 -0.134778 -1.943966
H 2.304566 -1.517367 0.013551
H 1.774328 1.178401 1.427686
H 1.397661 -0.431828 2.063946
H 3.085309 0.055461 1.828804
H 0.535621 -0.554220 -1.685575
H -2.561025 -2.324378 -0.431931
H -3.554531 -0.899010 -0.067905
H -2.419275 -0.883551 -1.432144
H -3.191531 1.614393 0.433636
H -1.929014 2.739609 -0.111110
H -2.444633 1.436134 -1.169970