39

N -1.143073 -0.052937 3.500384
N -0.562239 0.185188 2.551875
N 0.218861 0.572094 1.663501
C 0.092214 0.214355 0.216382
C 0.684438 -1.171637 -0.083053
C 1.476221 -1.862419 0.842165
C 2.012311 -3.113107 0.515370
C 1.770153 -3.678208 -0.738690
C 0.988839 -2.986298 -1.670935
C 0.449540 -1.740421 -1.346724
C -1.384879 0.233190 -0.194053
C -2.188866 -0.868623 0.158584
C -3.544317 -0.892623 -0.166187
C -4.120703 0.184015 -0.851736
C -3.329515 1.276613 -1.207131
C -1.967408 1.303248 -0.879790
C 0.985748 1.256900 -0.546281
H 0.787940 1.103450 -1.640911
N 0.657492 2.691885 -0.252030
C 1.914262 3.461155 -0.531223
C 3.110841 2.491168 -0.407307
C 2.504025 1.084413 -0.274576
H 1.695627 -1.432387 1.819629
H 2.623090 -3.644545 1.243991
H 2.187801 -4.651089 -0.991094
H 0.799400 -3.420603 -2.651542
H -0.164586 -1.212262 -2.077363
H -1.751900 -1.721589 0.679407
H -4.155200 -1.749571 0.113839
H -5.179478 0.166491 -1.104083
H -3.768786 2.119101 -1.740021
H -1.377901 2.180472 -1.168154
H 0.402401 2.800411 0.738520
H 1.837042 3.862367 -1.563723
H 2.005916 4.328188 0.147339
H 3.770068 2.563016 -1.287563
H 3.734061 2.735651 0.468596
H 2.683560 0.679094 0.737724
H 2.956236 0.369864 -0.979604