16

H -1.235924 1.561207 0.000000
N -0.212503 1.471962 0.000000
C 0.212503 0.742788 1.230177
C -0.212503 -0.742788 1.230177
N 0.212503 -1.471962 0.000000
C -0.212503 -0.742788 -1.230177
C 0.212503 0.742788 -1.230177
H 1.317422 0.829866 1.314407
H -0.207477 1.270437 2.111480
H 0.207477 -1.270437 2.111480
H -1.317422 -0.829866 1.314407
H 1.235924 -1.561207 0.000000
H 0.207477 -1.270437 -2.111480
H -1.317422 -0.829866 -1.314407
H -0.207477 1.270437 -2.111480
H 1.317422 0.829866 -1.314407