18

C -1.764681 -1.045225 0.000049
C -0.809980 -0.110636 0.000005
C -1.134222 1.350983 -0.000063
C 0.662414 -0.494461 0.000024
C 1.359982 0.017374 -1.266571
C 1.359982 0.017499 1.266568
H -1.567894 -2.104896 0.000098
H -2.819087 -0.820960 0.000037
H -0.716832 1.849958 0.884873
H -0.716794 1.849885 -0.885022
H -2.215084 1.540743 -0.000094
H 0.737577 -1.614087 0.000080
H 2.386688 -0.358823 -1.329158
H 0.830310 -0.309439 -2.168616
H 1.411574 1.111102 -1.291081
H 0.830312 -0.309227 2.168646
H 2.386689 -0.358688 1.329191
H 1.411570 1.111230 1.290972