16

C -2.208411 0.000000 0.000000
C -0.876788 0.000000 0.000000
C -0.012749 1.234868 -0.061093
C 1.443288 0.763019 0.110860
C 1.443288 -0.763019 -0.110861
C -0.012749 -1.234868 0.061094
H -2.804241 0.896826 -0.039478
H -2.804241 -0.896826 0.039476
H -0.153590 1.750100 -1.029748
H -0.297730 1.963099 0.718675
H 2.117578 1.271097 -0.596719
H 1.810344 1.006665 1.122863
H 1.810343 -1.006665 -1.122864
H 2.117579 -1.271097 0.596718
H -0.153590 -1.750099 1.029749
H -0.297730 -1.963100 -0.718673