64

C 2.053909 3.608455 -0.723124
Si 0.730428 2.756273 0.263035
C 0.871353 3.218552 2.060655
C -0.951075 3.239483 -0.371119
O 0.897948 1.164951 0.122540
C 1.312441 -0.180568 0.075704
C 0.996709 -0.744895 1.518655
H 1.180360 0.107130 2.231764
C 1.888804 -1.953323 1.889585
C 0.966149 -3.031617 2.482250
C -0.459756 -2.651433 2.054216
N -0.406628 -1.185791 1.770257
C -1.484469 -0.557063 1.128250
C -2.731583 -1.077129 1.047294
C -3.862098 -0.336373 0.488640
C -5.152829 -0.540118 1.017646
C -6.245609 0.152779 0.496629
C -6.073607 1.054540 -0.559641
C -4.797859 1.255552 -1.094736
C -3.698484 0.565696 -0.579710
C 0.551261 -0.890761 -1.039163
C -0.180494 -0.164099 -1.987015
C -0.876820 -0.828239 -3.002158
C -0.839567 -2.222298 -3.084787
C -0.096714 -2.952236 -2.150407
C 0.596929 -2.291418 -1.134865
C 2.825500 -0.135666 -0.173538
C 3.648140 0.526665 0.753817
C 5.029045 0.588900 0.556913
C 5.604788 -0.004822 -0.571596
C 4.790309 -0.651455 -1.504137
C 3.405979 -0.713001 -1.309678
H 3.057541 3.287414 -0.406032
H 1.958033 3.390015 -1.796731
H 1.975263 4.698090 -0.582227
H 0.673047 4.298918 2.161704
H 0.133494 2.679657 2.673354
H 1.870366 3.016132 2.466996
H -1.082849 3.011530 -1.436990
H -1.763053 2.746530 0.185291
H -1.066394 4.329367 -0.239712
H 2.426612 -2.349156 1.007132
H 2.669176 -1.653001 2.609375
H 1.240277 -4.039507 2.130999
H 1.049367 -3.050671 3.584290
H -0.792874 -3.234364 1.169180
H -1.197381 -2.823453 2.866220
H -1.266379 0.463139 0.769468
H -2.969100 -2.072740 1.411428
H -5.293354 -1.235386 1.841467
H -7.237559 -0.007988 0.914668
H -6.926698 1.593069 -0.961855
H -4.660007 1.952261 -1.919307
H -2.712093 0.714689 -1.015179
H -0.209057 0.927120 -1.935640
H -1.452546 -0.254458 -3.726857
H -1.387643 -2.738737 -3.870574
H -0.061820 -4.038231 -2.213312
H 1.175816 -2.869875 -0.414424
H 3.206547 1.007127 1.628199
H 5.657629 1.104338 1.281015
H 6.681335 0.042525 -0.724333
H 5.230678 -1.105771 -2.390315
H 2.787989 -1.207264 -2.061147