53

C -2.342790 3.750027 -0.738513
C -1.728981 2.554101 0.014313
C -2.752313 1.992922 1.014792
C -1.259657 1.493605 -0.974145
Sn -0.068344 -0.065652 -0.045580
C 1.086505 0.797411 1.577550
C 2.349194 0.006369 1.896495
C 3.241218 0.793374 2.873669
C 2.029855 -1.377551 2.482430
C -1.339246 -1.634382 0.754578
C -2.643352 -1.795711 -0.016909
C -2.404629 -2.314223 -1.444553
C -3.589648 -2.754338 0.730881
C 1.223897 -0.934903 -1.558659
C 2.587198 -0.258957 -1.636114
C 3.531513 -1.060818 -2.549950
C 2.483656 1.190299 -2.136377
H -2.672651 4.530632 -0.046712
H -1.619838 4.199686 -1.425689
H -3.211671 3.445551 -1.330674
H -0.848886 2.935914 0.591714
H -2.328994 1.194011 1.630875
H -3.110487 2.772841 1.694564
H -3.627903 1.580387 0.502079
H -2.107736 1.011887 -1.472262
H -0.644215 1.937448 -1.764394
H 1.332937 1.824050 1.284334
H 0.430346 0.871190 2.450730
H 2.936555 -0.142414 0.943131
H 2.729222 0.974952 3.824056
H 4.165691 0.252014 3.095310
H 3.519127 1.767683 2.460249
H 1.512100 -2.017629 1.762076
H 2.943599 -1.901415 2.782015
H 1.393289 -1.299369 3.369925
H -0.760640 -2.563685 0.754327
H -1.531847 -1.387470 1.804126
H -3.155507 -0.801896 -0.085843
H -1.847429 -3.256881 -1.439576
H -3.351672 -2.498551 -1.962354
H -1.837817 -1.601936 -2.050931
H -3.809292 -2.388572 1.738423
H -4.541925 -2.866968 0.204402
H -3.149321 -3.751231 0.833220
H 1.327159 -1.998786 -1.319234
H 0.697831 -0.880340 -2.517091
H 3.044816 -0.241151 -0.603518
H 3.146398 -1.114830 -3.573220
H 4.525394 -0.605836 -2.595289
H 3.653427 -2.087445 -2.191466
H 1.962678 1.246181 -3.097676
H 1.944365 1.828815 -1.430184
H 3.475576 1.632414 -2.277362