47

C -0.502432 -0.072496 1.715462
C 0.097488 -0.008939 0.260484
C 0.998586 1.224521 0.090611
C 1.652890 1.807076 1.186124
C 2.505913 2.900854 1.009126
C 2.728385 3.422156 -0.267299
C 2.094919 2.836917 -1.368469
C 1.242072 1.745853 -1.192677
C 1.060301 -1.178409 0.008226
C 1.405957 -1.519913 -1.312384
C 2.308169 -2.552544 -1.570604
C 2.892855 -3.258204 -0.513376
C 2.574705 -2.911716 0.801044
C 1.670960 -1.875520 1.060334
C -1.076666 0.003144 -0.719538
C -1.712765 1.216927 -1.036892
C -2.799781 1.243118 -1.912032
C -3.278638 0.056406 -2.477167
C -2.668586 -1.156419 -2.149391
C -1.578820 -1.184461 -1.273378
N -1.400447 1.105490 1.954608
C -2.808554 0.600239 2.010099
C -2.754846 -0.903248 2.346832
C -1.326670 -1.355745 1.999520
H 0.362777 -0.026784 2.428803
H 1.503272 1.411768 2.190111
H 2.999239 3.344841 1.871720
H 3.390536 4.273260 -0.404963
H 2.268207 3.231657 -2.368088
H 0.762983 1.299403 -2.064218
H 0.969924 -0.970319 -2.147821
H 2.560926 -2.805956 -2.598945
H 3.594417 -4.064251 -0.714878
H 3.034528 -3.445284 1.631089
H 1.461099 -1.613918 2.096252
H -1.367075 2.144060 -0.571458
H -3.277253 2.191231 -2.152017
H -4.122115 0.078418 -3.162613
H -3.041134 -2.085849 -2.575317
H -1.126197 -2.144315 -1.023913
H -1.153311 1.549259 2.844041
H -3.413883 1.175998 2.731764
H -3.258433 0.757945 1.004038
H -2.980795 -1.083556 3.410493
H -3.505472 -1.466893 1.768315
H -1.330804 -2.036454 1.130019
H -0.880955 -1.930261 2.827394