26

O 1.185975 1.987080 -0.248456
C 1.286193 0.773550 -0.103477
C 2.642580 0.132877 -0.039495
C 3.634953 0.735896 0.745988
C 4.909182 0.166068 0.816270
C 5.197091 -0.995486 0.092109
C 4.211318 -1.587629 -0.704767
C 2.933007 -1.026033 -0.770986
C 0.157984 -0.123501 0.036955
H 0.387900 -1.171751 0.227297
N -1.146825 0.254232 -0.022302
C -1.543781 1.568575 -0.244777
C -2.886821 1.922271 -0.307155
C -3.892349 0.961672 -0.145956
C -3.484091 -0.351210 0.078429
Cl -4.660586 -1.586315 0.287363
C -2.136963 -0.709733 0.141174
H 3.407421 1.653627 1.291318
H 5.678591 0.630959 1.430222
H 6.191051 -1.437116 0.145203
H 4.439971 -2.485621 -1.275588
H 2.168901 -1.482894 -1.399219
H -0.741322 2.328787 -0.368275
H -3.150971 2.968611 -0.484626
H -4.945842 1.229293 -0.193284
H -1.835596 -1.746712 0.319673