34

C 2.848308 -0.512786 -1.176873
C 2.137574 -0.500142 -0.045684
C 1.278438 -1.672119 0.364551
C -0.007840 -1.744294 -0.478973
C -1.242418 -2.137372 0.347386
C -2.487276 -1.295212 0.022751
C -2.325762 0.187302 0.397744
C -1.874000 1.055808 -0.786952
C -1.130704 2.330256 -0.355963
C 0.388146 2.127496 -0.234727
C 0.791200 1.359895 1.031998
C 2.161164 0.678332 0.896864
H 2.858104 -1.345296 -1.861708
H 3.468212 0.304961 -1.504863
H 1.850843 -2.615005 0.260346
H 1.027032 -1.607174 1.441969
H -0.182774 -0.758108 -0.970246
H 0.133075 -2.455145 -1.312785
H -1.473386 -3.207116 0.181701
H -1.022137 -2.051554 1.429988
H -2.742300 -1.397017 -1.048992
H -3.352859 -1.716777 0.570412
H -3.275592 0.578588 0.804570
H -1.582450 0.277989 1.223234
H -1.208679 0.453806 -1.448482
H -2.749961 1.323824 -1.405364
H -1.323003 3.127446 -1.101007
H -1.541942 2.714308 0.596169
H 0.762594 1.592604 -1.131492
H 0.893953 3.111561 -0.247574
H 0.806869 2.048522 1.897190
H 0.014183 0.595822 1.269193
H 2.504418 0.337455 1.895247
H 2.914819 1.423325 0.569766