21

O 2.484998 -1.445041 0.000661
C 2.166706 -0.254547 0.000185
C 0.856056 0.296756 -0.000393
C -0.291618 -0.520203 -0.000537
O -1.494979 0.284293 -0.001040
C -2.732802 -0.458329 -0.000831
C -3.827077 0.602848 0.001518
O -0.509823 -1.724090 0.000297
C 0.681786 1.785189 -0.000837
C 3.341554 0.739324 0.000616
H -2.757287 -1.097696 -0.899997
H -2.755772 -1.100136 0.896662
H -4.821219 0.153509 0.001605
H -3.727269 1.249375 0.881528
H -3.728571 1.251932 -0.876752
H 1.134269 2.237214 -0.890714
H -0.382148 2.063358 -0.001057
H 1.134039 2.237728 0.888896
H 3.305065 1.373710 -0.885398
H 3.304146 1.374040 0.886356
H 4.285541 0.189438 0.001206