27

O -0.173081 1.833599 -0.092492
C 0.087259 0.666486 0.175451
N -0.817234 -0.352640 -0.063258
C -2.164636 -0.074634 -0.613675
C -3.254715 -0.421636 0.414647
C -4.645082 -0.175717 -0.161959
C 1.434190 0.297147 0.833035
H 1.353472 0.611505 1.902735
N 1.711016 -1.170974 0.732325
C 2.578040 -1.351981 -0.477725
C 3.318815 -0.020770 -0.730649
C 2.589388 1.037486 0.114729
H -0.589216 -1.320285 0.157032
H -2.229900 1.005106 -0.897027
H -2.301658 -0.663246 -1.546905
H -3.158959 -1.476380 0.736899
H -3.110586 0.187993 1.329653
H -4.833858 -0.789784 -1.049854
H -5.423848 -0.413725 0.572187
H -4.782511 0.873481 -0.451732
H 2.214872 -1.479117 1.571128
H 3.269283 -2.203532 -0.348860
H 1.910803 -1.597446 -1.331859
H 4.381399 -0.092390 -0.446419
H 3.302049 0.243724 -1.801416
H 2.200432 1.866886 -0.509371
H 3.266847 1.505423 0.847159