35

C 1.753765 -1.247939 3.095714
Sn 0.000000 -0.005482 3.050984
C -1.753765 -1.247939 3.095714
C 0.000000 1.287623 4.768826
C 0.000000 1.211806 1.261310
C 0.000000 0.357973 0.000000
C 0.000000 1.211806 -1.261310
Sn 0.000000 -0.005482 -3.050984
C -1.753765 -1.247939 -3.095714
C 0.000000 1.287623 -4.768826
C 1.753765 -1.247939 -3.095714
H 1.766557 -1.906664 2.235928
H 2.646492 -0.634676 3.077563
H 1.762636 -1.849834 3.996183
H -1.762636 -1.849833 3.996183
H -2.646492 -0.634676 3.077562
H -1.766556 -1.906664 2.235928
H 0.880627 1.918068 4.763409
H -0.880627 1.918068 4.763409
H 0.000000 0.698965 5.678218
H -0.877093 1.866554 1.294278
H 0.877093 1.866554 1.294278
H 0.888457 -0.306988 0.000000
H -0.888456 -0.306989 0.000000
H -0.877093 1.866554 -1.294278
H 0.877093 1.866554 -1.294278
H -2.646492 -0.634676 -3.077562
H -1.762636 -1.849833 -3.996183
H -1.766556 -1.906664 -2.235928
H 0.880627 1.918068 -4.763409
H 0.000000 0.698965 -5.678218
H -0.880627 1.918068 -4.763409
H 1.766557 -1.906664 -2.235928
H 1.762636 -1.849834 -3.996183
H 2.646492 -0.634676 -3.077563