17

O -3.587013 0.699775 0.000020
N -2.799406 -0.256275 -0.000033
C -1.405550 -0.009382 -0.000015
C -0.905444 1.327439 0.000019
C 0.437979 1.572481 0.000029
C 1.403539 0.489228 0.000010
C 2.755682 0.761382 0.000022
H 3.105418 1.789337 0.000048
C 3.760584 -0.213886 0.000009
N 4.619397 -1.001291 0.000021
C 0.871259 -0.858480 -0.000022
C -0.473639 -1.092396 -0.000032
O -3.213234 -1.422853 -0.000029
H -1.632520 2.143461 0.000034
H 0.817666 2.587125 0.000052
H 1.579527 -1.681373 -0.000037
H -0.874509 -2.109278 -0.000057