42

O 2.742498 -0.000615 1.753096
C 1.771120 -0.000368 2.534727
C 2.063681 -0.000384 4.022082
C 0.432628 -0.000078 2.136495
P -0.037427 0.000028 0.459962
C 0.538144 1.444807 -0.535623
C -0.222072 1.894415 -1.619399
C 0.239753 2.971771 -2.379858
C 1.460276 3.582711 -2.061123
C 2.220071 3.111690 -0.989604
C 1.762362 2.030580 -0.221285
C 0.537511 -1.444949 -0.535698
C -0.223032 -1.894312 -1.619357
C 0.238288 -2.971857 -2.379842
C 1.458645 -3.583229 -2.061259
C 2.218763 -3.112443 -0.989881
C 1.761561 -2.031139 -0.221508
C -1.886855 0.000388 0.430083
C -2.572095 -1.214608 0.471963
C -3.971446 -1.211142 0.519877
C -4.669147 0.000789 0.540031
C -3.971116 1.212509 0.519481
C -2.571752 1.215568 0.471557
H 1.639605 0.883552 4.507853
H 1.639838 -0.884507 4.507739
H 3.145872 -0.000278 4.201797
H -0.351162 0.000096 2.878991
H -1.168818 1.426882 -1.895715
H -0.344193 3.334431 -3.222937
H 1.816965 4.422874 -2.656062
H 3.175040 3.576155 -0.747119
H 2.394161 1.656451 0.605284
H -1.169644 -1.426430 -1.895544
H -0.345912 -3.334348 -3.222816
H 1.814935 -4.423544 -2.656221
H 3.173610 -3.577227 -0.747513
H 2.393623 -1.657227 0.604947
H -2.047676 -2.174706 0.474046
H -4.515795 -2.153969 0.548538
H -5.758499 0.000937 0.578217
H -4.515183 2.155507 0.547850
H -2.047070 2.175521 0.473313