30

C 3.419914 -0.428142 -1.525934
Si 2.563094 0.190578 0.000004
O 1.052705 -0.368104 0.000026
C -0.186974 -0.830106 0.000044
C -0.568042 -2.132997 0.000113
C -2.080853 -2.210987 0.000108
C -2.510996 -0.760589 0.000027
C -3.781117 -0.206096 -0.000011
C -3.894632 1.195581 -0.000087
C -2.762518 2.014385 -0.000123
C -1.471370 1.459473 -0.000086
C -1.356490 0.078370 -0.000012
C 3.420022 -0.428306 1.525814
C 2.507938 2.048112 0.000106
H 2.911949 -0.086936 -2.440090
H 4.454433 -0.048605 -1.542830
H 3.455089 -1.527241 -1.550845
H 0.049011 -3.007216 0.000164
H -2.458309 -2.750851 -0.888896
H -2.458319 -2.750754 0.889167
H -4.669521 -0.831018 0.000017
H -4.885738 1.647815 -0.000117
H -2.878583 3.096466 -0.000182
H -0.585969 2.093306 -0.000113
H 4.454545 -0.048778 1.542674
H 2.912125 -0.087190 2.440042
H 3.455190 -1.527407 1.550610
H 1.995012 2.438209 -0.890547
H 1.995044 2.438110 0.890820
H 3.539784 2.436638 0.000108