24

C -2.301635 1.313548 0.032088
C -1.796278 0.119882 -0.306118
C -2.516456 -1.155778 0.032409
C -0.521717 -0.035861 -1.067599
Si 1.024960 -0.014449 0.020739
C 0.932310 -1.364360 1.309421
C 2.498079 -0.312772 -1.093953
C 1.189436 1.646498 0.855163
H -3.222662 1.440402 0.572489
H -1.824163 2.249055 -0.203711
H -2.953385 -1.604330 -0.869395
H -1.840097 -1.898991 0.474285
H -3.334794 -0.996659 0.745297
H -0.506361 -0.978089 -1.659069
H -0.394641 0.789690 -1.807338
H 0.813325 -2.355736 0.851032
H 1.845606 -1.383603 1.922209
H 0.078793 -1.193963 1.983735
H 2.572667 0.456466 -1.875608
H 3.430443 -0.287346 -0.509746
H 2.438511 -1.293118 -1.587111
H 0.281977 1.861989 1.443730
H 2.050740 1.672354 1.537350
H 1.312162 2.457211 0.123042