20

C -0.244387 -0.125638 2.849994
C -0.244387 -0.865923 1.515445
Si -0.199767 0.253567 0.000000
H -1.406720 1.090207 0.000000
C 1.295919 1.366580 0.000000
C -0.244387 -0.865923 -1.515445
C -0.244387 -0.125638 -2.849994
H -0.332410 -0.832062 3.685903
H 0.681164 0.443812 3.006583
H -1.083377 0.578177 2.935116
H 0.615197 -1.570786 1.475862
H -1.153400 -1.506862 1.439705
H 1.300386 2.016657 0.888747
H 2.238109 0.801232 0.000000
H 1.300386 2.016657 -0.888747
H 0.615197 -1.570786 -1.475862
H -1.153400 -1.506862 -1.439705
H -0.332410 -0.832062 -3.685903
H -1.083377 0.578177 -2.935116
H 0.681164 0.443812 -3.006583