16

C 2.543725 -0.549262 0.000010
C 1.115617 -0.166719 -0.000005
C -0.031236 -0.962128 -0.000008
C -1.165790 -0.089753 -0.000005
C -2.580782 -0.520408 0.000002
C -0.695769 1.224854 -0.000004
N 0.710274 1.174768 0.000000
H 3.071492 -0.174629 -0.888881
H 3.071302 -0.175174 0.889246
H 2.656081 -1.644689 -0.000315
H -0.067241 -2.029604 -0.000012
H -2.807875 -1.132236 0.885290
H -3.276112 0.328447 -0.000131
H -2.807817 -1.132466 -0.885142
H -1.239112 2.146218 -0.000004
H 1.312772 1.971253 0.000008