15

C 0.000000 3.064034 0.000000
C -0.999447 1.905453 0.000000
Hg 0.000000 0.000000 0.000000
C 0.999447 -1.905453 0.000000
C 0.000000 -3.064034 0.000000
H 0.647954 3.084569 0.893177
H 0.647954 3.084569 -0.893177
H -0.538249 4.027326 0.000000
H -1.675852 1.994140 0.890332
H -1.675852 1.994140 -0.890332
H 1.675852 -1.994140 -0.890332
H 1.675852 -1.994140 0.890332
H -0.647954 -3.084569 0.893177
H -0.647954 -3.084569 -0.893177
H 0.538249 -4.027326 0.000000