17

C -1.880418 0.985655 -0.372053
C -0.652554 0.570745 0.420092
H -0.569052 1.121526 1.380278
O -0.799565 -0.811194 0.839177
C 0.000521 -1.660252 0.000076
O 0.799640 -0.810758 -0.839478
C 0.652306 0.571037 -0.420059
H 0.568641 1.121987 -1.380134
C 1.880041 0.986162 0.372174
H -2.795568 0.756189 0.192081
H -1.882556 2.057085 -0.594907
H -1.957096 0.438764 -1.321024
H 0.652477 -2.246388 0.663410
H -0.650824 -2.247406 -0.662954
H 2.795264 0.757069 -0.191993
H 1.881862 2.057557 0.595207
H 1.956874 0.439152 1.321061