46

C -1.578088 4.811773 0.613480
C -1.926747 3.568254 -0.095594
O -1.247923 2.423369 0.367591
C -2.768158 3.230572 -1.122409
C -2.623007 1.806905 -1.325719
C -1.703577 1.348047 -0.415684
B -1.103795 -0.101053 -0.095355
C 0.496152 -0.092367 -0.067387
C 1.220632 -0.752395 -1.069579
C 2.612451 -0.765736 -1.041470
C 3.298342 -0.114856 0.001354
C 4.787225 -0.149507 0.010823
F 5.384348 0.381313 -1.078995
F 5.415645 0.486670 1.020594
F 5.333777 -1.384600 0.065740
C 2.575314 0.550615 1.006729
C 1.182839 0.560214 0.965921
O -1.601015 -0.627934 1.209995
C -2.644025 -1.549337 0.941864
C -2.582315 -2.612210 2.047690
C -3.980070 -0.790390 1.002119
C -2.309086 -2.097030 -0.508488
C -1.347265 -3.299168 -0.484282
C -3.544376 -2.416698 -1.361491
O -1.633746 -1.028085 -1.146509
H -1.820548 4.731596 1.683665
H -0.497931 5.010598 0.541574
H -2.115085 5.673471 0.200958
H -3.413453 3.867603 -1.683302
H -3.132743 1.227879 -2.064310
H 0.665724 -1.253676 -1.865426
H 3.166426 -1.279209 -1.824159
H 3.090637 1.059981 1.817349
H 0.603298 1.076792 1.732880
H -2.892285 -2.182314 3.005107
H -3.218229 -3.467160 1.819682
H -1.549137 -2.954698 2.181280
H -4.027195 -0.053342 0.186921
H -4.842569 -1.449880 0.940391
H -4.031597 -0.213497 1.931315
H -1.820128 -4.206849 -0.114949
H -0.960153 -3.481334 -1.491310
H -0.478739 -3.061567 0.144543
H -4.085196 -1.491142 -1.594790
H -3.244709 -2.850946 -2.319736
H -4.217327 -3.106405 -0.852843