25

C -3.079112 -0.854946 -0.024267
N -1.889988 0.011096 0.231550
C -0.652243 -0.575240 -0.378617
C 0.512732 -0.387339 0.625398
H 0.149116 -0.656207 1.646203
N 1.619122 -1.315571 0.204176
C 2.576193 -0.500732 -0.609442
C 2.405680 0.980332 -0.200768
C 1.104559 1.046431 0.617086
C -2.139680 1.392988 -0.276086
H -2.905245 -1.841825 0.434799
H -3.956437 -0.416795 0.477719
H -3.326966 -1.002943 -1.085058
H -0.778792 -1.666033 -0.560385
H -0.389859 -0.139108 -1.362796
H 2.095363 -1.681163 1.034658
H 3.614153 -0.855283 -0.482726
H 2.311504 -0.645644 -1.678186
H 3.264866 1.331488 0.393213
H 2.355798 1.631337 -1.088039
H 0.385387 1.771406 0.189603
H 1.298609 1.388089 1.646566
H -2.958418 1.842380 0.307455
H -1.234205 2.005719 -0.100212
H -2.397585 1.456943 -1.342718