34

C 5.506439 0.320531 -1.330729
Si 4.192691 0.847165 -0.130981
C 4.899394 1.052731 1.570741
C 3.367196 2.406198 -0.703246
O 3.050452 -0.321396 -0.061660
C 2.206266 -1.339900 -0.071386
C 2.475004 -2.514944 -0.640209
C 0.911204 -0.971255 0.661650
F 0.584164 -1.933366 1.554768
F 1.134694 0.096054 1.456091
C -0.308841 -0.696605 -0.288839
F 0.093464 0.102280 -1.301492
F -0.623974 -1.841160 -0.934464
C -1.598316 -0.083852 0.363943
F -1.877649 -0.718746 1.522231
F -1.332586 1.173694 0.778559
C -2.892163 -0.072558 -0.524741
F -2.609736 0.363449 -1.770743
F -3.308426 -1.338589 -0.744776
C -4.094867 0.761731 0.036847
F -3.872717 2.080035 0.067189
F -5.216297 0.622233 -0.679848
F -4.445917 0.439567 1.285883
H 5.997673 -0.611276 -1.014226
H 5.096002 0.162889 -2.339238
H 6.276015 1.108291 -1.394236
H 5.668099 1.843222 1.556265
H 4.124162 1.342747 2.296912
H 5.367749 0.125282 1.933015
H 2.910432 2.285826 -1.697041
H 2.577474 2.726003 -0.006274
H 4.115684 3.213831 -0.765445
H 1.796133 -3.353751 -0.649758
H 3.416211 -2.713720 -1.137730