31

O -0.044230 -2.023289 -1.126559
C -0.545489 -0.989110 -0.774266
C -1.923579 -0.700917 -0.242624
C -2.036579 0.694383 0.011047
C -3.204192 1.239719 0.499029
C -4.287758 0.362717 0.743363
C -4.176621 -1.001050 0.497631
C -2.976879 -1.557311 -0.006784
C -0.730129 1.357022 -0.330534
N 0.090903 0.305275 -0.865660
C 1.541079 0.452664 -1.112762
C 2.320331 0.780627 0.186847
H 1.962127 1.762642 0.581195
N 2.081079 -0.299940 1.197881
C 3.179439 -1.299759 1.006627
C 4.385435 -0.557844 0.384429
C 3.846199 0.803558 -0.094248
O -0.388311 2.507396 -0.222879
H -3.294414 2.308887 0.693062
H -5.220886 0.772878 1.131779
H -5.022238 -1.661563 0.694071
H -2.893137 -2.627433 -0.198974
H 1.913966 -0.499604 -1.560269
H 1.691333 1.267269 -1.855863
H 2.131680 0.097282 2.141854
H 3.434962 -1.800872 1.956530
H 2.798315 -2.084783 0.316929
H 5.196331 -0.426422 1.118867
H 4.814424 -1.135237 -0.450639
H 4.071829 0.975798 -1.158407
H 4.324619 1.632762 0.453298