31

C -0.360043 2.042166 1.046446
C -0.127927 1.026466 0.199082
C 1.242130 0.437436 0.112449
C 1.758388 -0.289907 1.194769
C 3.049951 -0.819136 1.123919
C 3.828013 -0.622723 -0.021676
C 3.313491 0.105131 -1.099878
C 2.022096 0.634844 -1.036741
N -1.063959 0.523499 -0.763887
C -1.030944 -0.953895 -0.998502
C -1.765324 -1.747679 0.096528
C -3.211435 -1.257858 0.253066
C -3.258716 0.260954 0.469083
C -2.475850 0.996617 -0.632828
H -1.311816 2.521796 1.184206
H 0.417132 2.476730 1.653083
H 1.153504 -0.434901 2.088395
H 3.451412 -1.383021 1.963910
H 4.834070 -1.033953 -0.073394
H 3.920331 0.261246 -1.990030
H 1.614336 1.201668 -1.873903
H -1.505378 -1.134312 -1.988907
H 0.020673 -1.299377 -1.089595
H -1.750190 -2.825427 -0.146692
H -1.225774 -1.641596 1.057743
H -3.798830 -1.528208 -0.645400
H -3.695361 -1.774955 1.102489
H -4.305460 0.613399 0.487181
H -2.831297 0.511676 1.460051
H -2.481827 2.093074 -0.454393
H -2.960797 0.837171 -1.621835