26

H 0.000000 -2.444128 -0.010504
C -0.000022 -1.464991 0.514933
H -0.000068 -1.711773 1.602746
C 1.256393 -0.704124 0.192519
C 1.256393 0.704163 0.192374
C 2.440317 1.398126 -0.093297
C 3.617077 0.698917 -0.373715
C 3.617077 -0.698994 -0.373572
C 2.440316 -1.398146 -0.093009
C -0.000022 1.465097 0.514631
C -1.256409 0.704163 0.192266
C -1.256409 -0.704124 0.192412
C -2.440309 -1.398146 -0.093217
C -3.617045 -0.698994 -0.373879
C -3.617045 0.698917 -0.374023
C -2.440308 1.398126 -0.093506
H 2.446159 2.486331 -0.098353
H 4.532617 1.243990 -0.594016
H 4.532617 -1.244112 -0.593760
H 2.446159 -2.486351 -0.097841
H -0.000068 1.712103 1.602393
H 0.000001 2.444125 -0.011007
H -2.446151 -2.486351 -0.098048
H -4.532567 -1.244112 -0.594144
H -4.532567 1.243990 -0.594402
H -2.446150 2.486331 -0.098562