24

C 2.379047 0.847355 1.531957
Si 1.766992 -0.001406 0.000089
O 0.134649 0.094493 -0.002627
C -1.166623 0.170737 -0.001320
C -2.020387 1.215723 -0.000510
C -3.425194 0.681482 0.000557
C -3.224896 -0.853183 0.000359
O -1.766524 -1.099180 -0.000920
C 2.384193 0.857591 -1.523965
C 2.253578 -1.789298 -0.004917
H 1.996158 0.359586 2.441349
H 3.480366 0.807124 1.557800
H 2.072740 1.903536 1.562412
H -1.792924 2.258884 -0.000520
H -3.987313 1.022344 0.888292
H -3.988680 1.022389 -0.886328
H -3.591613 -1.352667 0.907845
H -3.593167 -1.352693 -0.906491
H 3.484921 0.805173 -1.553426
H 1.993449 0.384897 -2.437926
H 2.089665 1.917437 -1.541168
H 1.853458 -2.314413 0.876553
H 1.870535 -2.304920 -0.899427
H 3.351213 -1.881927 0.005195