28

N 2.077782 0.540946 -0.574625
C 0.717357 0.587665 -0.176545
C -0.210900 -0.344517 -0.479654
C -1.638453 -0.174717 -0.203013
C -2.406360 -1.294847 0.171800
C -3.768095 -1.155826 0.441985
C -4.385192 0.095887 0.338331
C -3.630643 1.209611 -0.041388
C -2.266516 1.079366 -0.312429
C 3.045461 1.256723 0.321085
C 3.916004 0.185122 1.009319
C 3.705801 -1.116275 0.213316
C 2.687850 -0.787391 -0.898964
H 0.433295 1.525528 0.321572
H 0.063194 -1.289289 -0.950622
H -1.933155 -2.270180 0.256210
H -4.353579 -2.025636 0.734659
H -5.446132 0.200276 0.549073
H -4.108179 2.183885 -0.129834
H -1.691957 1.948414 -0.623840
H 3.664065 1.910283 -0.332193
H 2.537709 1.912873 1.051390
H 4.977012 0.483594 1.020021
H 3.618332 0.051821 2.063447
H 4.653198 -1.482647 -0.214865
H 3.328022 -1.919664 0.868485
H 1.923572 -1.582294 -1.010832
H 3.192249 -0.678389 -1.883352