12

C 2.085620 0.035148 0.000276
N 0.621658 0.005144 -0.000767
C -0.213856 1.129730 -0.000310
C -1.521497 0.632719 0.000293
N -1.505807 -0.760780 0.000403
C -0.203489 -1.133090 -0.000066
H 2.469489 0.541445 0.905647
H 2.503285 -0.986681 -0.018879
H 2.470156 0.574839 -0.885213
H 0.147732 2.137247 -0.000571
H -2.446994 1.180481 0.000573
H 0.164707 -2.144922 -0.000178