36

H 0.528694 -1.590099 -1.309404
P -0.017990 -1.160952 -0.022172
N 1.213897 0.038682 0.551214
C 2.618552 -0.051470 0.018157
C 3.463467 0.974689 0.810732
C 3.173159 -1.462081 0.309549
C 2.748644 0.255095 -1.491101
C 0.553668 1.374034 0.413288
C -0.601706 1.331028 -0.618897
N -1.273987 -0.004215 -0.626084
C -2.618412 -0.059071 0.054214
C -3.542933 0.922322 -0.707260
C -3.193376 -1.483011 -0.100506
C -2.594817 0.332016 1.546938
H 3.327692 0.830449 1.890278
H 4.528789 0.868597 0.590614
H 3.179531 2.006284 0.581495
H 2.798897 -2.228790 -0.373581
H 4.264591 -1.474397 0.218278
H 2.933562 -1.776811 1.334645
H 2.291559 1.213432 -1.753153
H 3.801740 0.306839 -1.786739
H 2.286171 -0.510474 -2.120953
H 0.160355 1.638262 1.423972
H 1.276977 2.173447 0.150215
H -1.321071 2.154884 -0.425701
H -0.213456 1.504043 -1.649870
H -3.530922 0.708415 -1.782807
H -4.576703 0.840672 -0.361626
H -3.232412 1.963550 -0.576704
H -2.711341 -2.212927 0.558293
H -4.259445 -1.497796 0.148408
H -3.095280 -1.843239 -1.131872
H -2.151043 1.318478 1.705628
H -3.607828 0.358229 1.960254
H -2.026051 -0.379340 2.156313