20

C -3.777720 0.060434 0.000224
O -2.626895 -0.813621 -0.000079
C -1.368821 -0.236280 -0.000025
C -1.132622 1.164056 0.000035
C 0.167049 1.644858 0.000049
C 1.214867 0.709990 -0.000001
C 0.972437 -0.711059 -0.000064
C 2.257844 -1.357586 -0.000100
C 3.226728 -0.367532 -0.000063
N 2.613804 0.896763 0.000004
C -0.346422 -1.184985 -0.000071
H -4.605492 -0.661017 0.000259
H -3.793362 0.671838 0.906737
H -3.793641 0.672070 -0.906129
H -1.965236 1.859641 0.000063
H 0.370548 2.711895 0.000096
H 2.415185 -2.416623 -0.000148
H 4.298821 -0.469745 -0.000073
H 3.080790 1.779696 0.000017
H -0.569121 -2.247504 -0.000114