15

O -2.800839 -0.000007 0.004243
C -1.549237 -0.000002 0.001054
C -0.784559 1.230514 -0.000991
C 0.593638 1.209631 -0.004178
C 1.314061 0.000007 -0.007159
C 2.813423 -0.000003 0.006055
C 0.593645 -1.209623 -0.004178
C -0.784551 -1.230514 -0.000991
H -1.342764 2.152406 -0.000024
H 1.143341 2.148732 -0.004421
H 3.189442 -0.000410 1.036133
H 3.218775 -0.882445 -0.499775
H 3.218795 0.882828 -0.499078
H 1.143356 -2.148718 -0.004421
H -1.342752 -2.152409 -0.000024