16

O -3.499374 -1.124215 0.000109
C -2.977771 0.000000 -0.000133
O -3.499374 1.124215 0.000171
C -1.410918 0.000000 -0.000085
C -0.712462 -1.214586 -0.000062
C 0.679213 -1.226268 -0.000020
C 1.372238 0.000000 -0.000002
C 0.679213 1.226268 -0.000026
C -0.712462 1.214586 -0.000066
N 2.833194 0.000000 0.000043
O 3.422921 -1.076957 0.000034
O 3.422921 1.076957 -0.000034
H -1.293416 -2.142981 -0.000081
H 1.237702 -2.163294 0.000002
H 1.237702 2.163294 -0.000012
H -1.293416 2.142981 -0.000083