31

O -0.934754 -2.399691 -0.334573
C -1.349836 -1.257514 -0.255187
C -0.698707 0.007559 -0.264575
C -1.460630 1.194157 -0.455806
O -2.883164 1.069973 -0.369936
C -3.460398 -0.072136 0.261830
C -3.353233 0.067020 1.779128
C -4.880777 -0.186957 -0.278710
O -2.776142 -1.251350 -0.163042
O -1.147104 2.341929 -0.711048
C 0.752058 0.086419 -0.153876
C 1.398599 1.323984 0.093373
C 2.779176 1.412501 0.229829
C 3.545144 0.240726 0.118645
O 4.914836 0.470549 0.288027
C 5.788759 -0.665516 0.140512
C 2.955001 -0.997772 -0.131189
C 1.565029 -1.060550 -0.267884
H -3.844883 0.979796 2.125081
H -3.790799 -0.797348 2.284770
H -2.297608 0.126232 2.081757
H -4.852538 -0.239945 -1.376342
H -5.362774 -1.097931 0.087495
H -5.476547 0.686723 -0.001207
H 0.800045 2.237000 0.164804
H 3.268261 2.362167 0.416318
H 5.565751 -1.417321 0.903328
H 5.702362 -1.083744 -0.866741
H 6.777613 -0.223211 0.300061
H 3.540053 -1.903391 -0.222596
H 1.100574 -2.031831 -0.468675