43

O -1.039977 -1.227899 2.022611
C -0.154487 -1.340384 1.159851
C 0.945437 -0.440908 1.049138
C 2.014728 -0.625625 0.160744
O 2.964764 0.439818 0.241764
C 4.103316 0.365033 -0.635676
C 3.726215 0.872754 -2.023603
O 2.297023 -1.520726 -0.640160
C 0.911543 0.794922 1.904872
C 0.350194 2.019691 1.146848
C -1.176573 1.957754 1.004544
C -1.686196 2.612377 -0.287173
C -3.055488 2.071009 -0.737032
C -2.955255 0.744184 -1.511987
C -2.858044 -0.476372 -0.587365
C -2.227339 -1.694787 -1.274212
C -1.734696 -2.740755 -0.256792
C -0.284337 -2.514166 0.183598
H 4.831571 1.020254 -0.129731
H 4.470267 -0.677382 -0.672162
H 4.590463 0.946770 -2.683233
H 2.997011 0.181838 -2.475574
H 3.236987 1.850189 -1.958897
H 0.299810 0.597025 2.808890
H 1.935241 1.030714 2.257245
H 0.648167 2.948189 1.660381
H 0.833082 2.048025 0.150025
H -1.485726 0.877963 1.021368
H -1.663619 2.406118 1.885290
H -1.746970 3.706501 -0.149862
H -0.946107 2.448508 -1.095824
H -3.715393 1.944701 0.141562
H -3.546175 2.825098 -1.379430
H -3.828210 0.637224 -2.180042
H -2.066912 0.777251 -2.173847
H -2.233646 -0.210939 0.310607
H -3.848771 -0.734066 -0.178654
H -2.954559 -2.155869 -1.964460
H -1.372515 -1.368601 -1.900120
H -2.383259 -2.728324 0.644931
H -1.824742 -3.749772 -0.696681
H 0.374587 -2.366054 -0.699012
H 0.110825 -3.413262 0.688993