13

C -2.175644 0.015793 0.000004
C -0.707726 0.143769 0.000001
N 0.058475 1.193644 0.000005
C 1.476494 0.752385 0.000003
C 1.404367 -0.795991 -0.000008
O -0.033109 -1.095322 -0.000004
H -2.528247 -0.537176 -0.886555
H -2.528257 -0.537002 0.886667
H -2.666567 1.004047 -0.000094
H 1.992324 1.159910 -0.892662
H 1.992323 1.159897 0.892673
H 1.804509 -1.269163 -0.907008
H 1.804517 -1.269178 0.906980