19

O 3.006481 1.505139 0.000067
C 2.605911 0.355144 -0.000032
O 3.307340 -0.818819 -0.000046
O 4.614114 -0.714468 0.000013
C 1.129604 0.012970 -0.000017
C 0.203004 1.067896 -0.000018
C -1.158693 0.781264 -0.000008
Cl -2.315788 2.056630 -0.000010
C -1.605415 -0.555939 0.000003
O -2.982755 -0.679968 0.000010
C -3.523178 -2.021170 0.000030
C -0.687311 -1.610729 0.000004
C 0.681188 -1.312184 -0.000005
H 0.568956 2.100775 -0.000027
H -3.218131 -2.553716 -0.905324
H -3.218114 -2.553698 0.905388
H -4.602407 -1.827624 0.000038
H -1.010839 -2.643842 0.000012
H 1.416817 -2.123192 -0.000007