13

C -2.431401 -0.019913 0.108838
C -1.202302 -0.296140 -0.321335
C 0.000000 0.544098 -0.000001
C 1.202302 -0.296141 0.321333
C 2.431401 -0.019913 -0.108836
H -3.293812 -0.619759 -0.142266
H -2.675591 0.820313 0.741483
H -0.997276 -1.158555 -0.959353
H 0.199716 1.222031 -0.859794
H -0.199715 1.222031 0.859793
H 0.997274 -1.158558 0.959348
H 3.293812 -0.619759 0.142268
H 2.675593 0.820315 -0.741478