25

O 2.355172 -1.463809 -0.000032
C 2.358825 -0.239702 0.000107
C 1.342332 0.748675 0.000158
H 1.688769 1.778354 0.000295
C -0.020243 0.487253 0.000046
C -0.965430 1.582807 0.000114
C -2.315460 1.359548 0.000007
C -2.833845 0.033007 -0.000174
N -4.235141 -0.192730 -0.000283
O -5.005170 0.776443 -0.000223
O -4.665995 -1.351669 -0.000443
C -1.919770 -1.064046 -0.000243
C -0.571116 -0.847052 -0.000137
O 3.627790 0.390149 0.000249
C 4.776074 -0.498368 0.000212
C 5.979290 0.431083 0.000509
H -0.571388 2.592873 0.000252
H -3.027605 2.188691 0.000059
H -2.333262 -2.075613 -0.000382
H 0.136057 -1.680759 -0.000189
H 4.719252 -1.135007 0.899788
H 4.719439 -1.134673 -0.899611
H 5.959517 1.087771 -0.878647
H 5.959336 1.087443 0.879907
H 6.917551 -0.128112 0.000502