25

O -2.453343 2.089399 -0.000632
C -2.838206 0.946665 -0.000234
N -1.979075 -0.188821 0.000281
C -0.628121 -0.160174 0.000079
C 0.584193 -0.126986 0.000015
C 1.997263 -0.077738 0.000010
C 2.748720 -1.268488 -0.000508
C 4.143524 -1.205801 -0.000500
C 4.795350 0.031817 0.000010
C 4.048592 1.215140 0.000512
C 2.653734 1.168590 0.000517
C -2.711199 -1.493309 0.000252
C -4.205445 -1.101632 0.000580
C -4.267226 0.433914 -0.000369
H 2.241394 -2.230388 -0.000914
H 4.725828 -2.125902 -0.000896
H 5.882313 0.074629 0.000013
H 4.557055 2.178362 0.000904
H 2.069151 2.087860 0.000901
H -2.436080 -2.086522 -0.896443
H -2.435725 -2.086713 0.896727
H -4.720860 -1.518682 -0.882887
H -4.720186 -1.517540 0.884968
H -4.805092 0.830236 0.882735
H -4.804598 0.829217 -0.884202