39

C -1.233972 2.973427 1.280270
Si 0.153463 2.210169 0.309296
C 0.349635 3.076790 -1.324734
C 1.733774 2.271570 1.276918
O -0.220432 0.664403 0.005155
C -0.553478 -0.627193 -0.101202
C 0.374531 -1.600639 -0.195237
C 1.828458 -1.415396 -0.196257
C 2.443086 -0.466758 -1.031603
C 3.833356 -0.332227 -1.035064
C 4.622497 -1.139266 -0.209589
C 4.014919 -2.086114 0.621975
C 2.626158 -2.229348 0.629285
C -2.023546 -0.848474 -0.109888
C -2.581195 -1.882259 0.658175
C -3.961373 -2.099334 0.634613
C -4.786986 -1.287729 -0.150506
C -4.232368 -0.253001 -0.911031
C -2.853325 -0.029143 -0.890520
H -0.994111 4.028228 1.490848
H -1.379490 2.455480 2.240205
H -2.185953 2.937391 0.731768
H 0.564907 4.141932 -1.137298
H -0.559924 3.013407 -1.937470
H 1.182549 2.657038 -1.906918
H 2.046836 3.317063 1.423277
H 2.542294 1.735515 0.752697
H 1.616215 1.802681 2.265659
H 0.047157 -2.639686 -0.281864
H 1.828369 0.162541 -1.674437
H 4.303373 0.403979 -1.684513
H 5.704198 -1.032157 -0.214378
H 4.627123 -2.714724 1.265988
H 2.158501 -2.965147 1.279161
H -1.940355 -2.509884 1.276891
H -4.394038 -2.901426 1.230396
H -5.861920 -1.460381 -0.168161
H -4.875442 0.380417 -1.519881
H -2.416344 0.780706 -1.476993