34

Cl 4.412788 -3.891336 -0.926501
C 3.213044 -2.821511 -0.295476
C 2.382858 -3.270018 0.733983
C 1.413699 -2.397813 1.243059
C 3.104995 -1.536901 -0.830918
C 2.127951 -0.675017 -0.317952
C 1.290416 -1.110771 0.710667
P -0.000172 -0.000201 1.493155
C 0.316619 1.672762 0.710750
C 1.369521 2.422899 1.243473
C 1.640686 3.698253 0.734423
C 0.837647 4.193026 -0.295365
Cl 1.164736 5.766865 -0.926354
C -0.220737 3.457270 -0.831183
C -0.479019 2.180261 -0.318240
C -1.607331 -0.562279 0.710660
C -2.783198 -0.020803 1.239172
C -4.023283 -0.423725 0.730287
C -4.050572 -1.371405 -0.295063
Cl -5.577165 -1.875174 -0.925808
C -2.884484 -1.924819 -0.826598
C -1.649349 -1.509875 -0.313872
H 2.491153 -4.277018 1.135858
H 0.772301 -2.752291 2.054537
H 3.767739 -1.211368 -1.632221
H 2.046405 0.329454 -0.742109
H 1.996878 2.044607 2.055176
H 2.458584 4.295418 1.136562
H -0.833639 3.868498 -1.632761
H -1.308040 1.607487 -0.742709
H -2.769028 0.715454 2.047418
H -4.949196 -0.010370 1.129164
H -2.934397 -2.664923 -1.624746
H -0.739046 -1.945143 -0.735071