16

O 2.112201 -1.824710 0.000034
C 1.422014 -0.787036 -0.000196
C 2.032216 0.536196 -0.000051
C 1.261029 1.672497 -0.000027
C -0.146073 1.627240 -0.000033
C -0.728979 0.349469 -0.000011
O -2.133787 0.428777 0.000059
C -2.862357 -0.813028 0.000146
C -0.027370 -0.834590 -0.000037
H 3.108975 0.568140 -0.000014
H 1.739683 2.651689 0.000018
H -0.750555 2.513150 0.000003
H -2.624296 -1.388049 -0.900228
H -2.624105 -1.388047 0.900471
H -3.904645 -0.484481 0.000258
H -0.475242 -1.809425 0.000002