15

N -3.524378 0.595896 -0.000008
C -2.565937 -0.057937 -0.000011
C -1.424694 -0.880711 -0.000004
H -1.606869 -1.957023 0.000000
N -0.156981 -0.398831 -0.000001
C 0.918244 -1.287369 0.000007
C 2.231526 -0.824527 0.000011
C 2.503688 0.546015 0.000008
C 1.426837 1.436791 0.000000
C 0.115886 0.967104 -0.000004
H 0.697167 -2.357206 0.000010
H 3.047539 -1.550725 0.000017
H 3.527599 0.910474 0.000011
H 1.600321 2.515665 -0.000003
H -0.729546 1.663154 -0.000010