10

C -2.181710 0.457071 0.000000
C -0.683072 0.502349 0.000000
C 0.000000 -0.799287 0.000000
N 1.301277 -0.891244 0.000000
N 2.424870 -0.976764 0.000000
O -0.064776 1.549227 0.000000
H -2.606992 -0.551467 0.000000
H -2.578932 0.987861 0.879742
H -2.578932 0.987861 -0.879742
H -0.611276 -1.702815 0.000000