12

C -2.123010 -0.029008 -0.000013
C -0.647743 -0.077771 -0.000005
N 0.156571 1.084527 0.000009
H -0.149808 2.036964 0.000020
C 1.496610 0.655852 0.000023
C 1.458153 -0.737361 -0.000003
N 0.132528 -1.184843 -0.000011
H -2.521278 0.476401 -0.891807
H -2.539960 -1.053884 -0.000082
H -2.521287 0.476284 0.891844
H 2.327566 1.330978 0.000037
H 2.277010 -1.434805 -0.000007