20

N -3.662382 -0.102583 -0.179754
C -2.221544 -0.030290 -0.562527
C -1.361289 0.064746 0.711069
C 0.100772 0.031904 0.363288
C 0.808730 1.227030 0.163836
C 2.166965 1.191230 -0.163421
C 2.827406 -0.034125 -0.295785
C 2.123640 -1.226926 -0.099658
C 0.765914 -1.196827 0.227888
H -3.949957 0.742040 0.304404
H -4.243824 -0.183050 -1.008339
H -1.968172 -0.963891 -1.114785
H -1.984420 0.817151 -1.241436
H -1.612038 0.982699 1.278472
H -1.624585 -0.772246 1.394134
H 0.301719 2.183903 0.264963
H 2.712038 2.121316 -0.315120
H 3.884557 -0.059870 -0.549525
H 2.635180 -2.182604 -0.201777
H 0.222613 -2.127813 0.379145