15

O 2.275005 1.526277 -0.000079
C 1.787177 0.409501 0.000291
O 2.399499 -0.812452 0.000039
O 3.709875 -0.805753 -0.000350
C 0.288652 0.184061 0.000164
C -0.548989 1.309944 0.000029
C -1.939126 1.163715 -0.000073
C -2.450601 -0.136210 -0.000035
F -3.782346 -0.292168 -0.000132
C -1.652090 -1.281051 0.000098
C -0.263785 -1.103613 0.000197
H -0.089489 2.303252 0.000016
H -2.590556 2.031080 -0.000173
H -2.084130 -2.276295 0.000127
H 0.402818 -1.971188 0.000312