46

C -0.294314 -2.803391 0.106151
C 0.173146 -1.555299 0.193970
N -0.591487 -0.408470 -0.367977
O -1.937770 -0.669027 -0.235125
Si -3.515723 -0.821874 -0.013535
C -3.836445 -1.606726 1.641113
C -4.342202 0.839740 -0.093695
C -4.152466 -1.919118 -1.376222
O -0.353656 0.684948 0.456786
Si -0.046618 2.319564 -0.040642
C -1.374573 2.934634 -1.173710
C -0.053203 3.165531 1.612512
C 1.615569 2.410339 -0.855645
C 1.554484 -1.219245 0.690471
C 2.544987 -1.162681 -0.479070
C 3.847936 -0.556256 -0.042890
O 4.867247 -1.421285 -0.383195
C 6.222541 -0.997599 -0.080302
O 4.065474 0.499616 0.502387
H 0.286201 -3.672136 0.377796
H -1.291837 -3.044478 -0.245164
H -3.445013 -0.975365 2.452984
H -4.922709 -1.722122 1.782185
H -3.367501 -2.596010 1.726820
H -4.190034 1.313486 -1.074137
H -5.423652 0.724712 0.076323
H -3.935596 1.512255 0.676823
H -3.731314 -2.931504 -1.323584
H -5.248239 -1.992343 -1.285978
H -3.912016 -1.502246 -2.365036
H -2.343823 2.988774 -0.652596
H -1.134471 3.932848 -1.568270
H -1.497543 2.243236 -2.024873
H 0.777654 2.812516 2.243440
H 0.054463 4.253359 1.477372
H -0.992306 2.973610 2.154383
H 1.623131 1.898042 -1.827619
H 1.890007 3.464993 -1.022603
H 2.403292 1.960713 -0.221368
H 1.540679 -0.240547 1.232658
H 1.884036 -1.966894 1.440594
H 2.699812 -2.174926 -0.911845
H 2.127173 -0.539862 -1.305586
H 6.522657 -0.236491 -0.806480
H 6.279139 -0.603633 0.940120
H 6.797871 -1.921960 -0.194959