23

H 1.761802 0.974746 0.000000
Si 0.544311 0.149842 0.000000
C 0.569645 -0.966636 1.517660
C 0.569645 -0.224051 2.850797
C -0.907994 1.342793 0.000000
C -2.294874 0.709880 0.000000
C 0.569645 -0.966636 -1.517660
C 0.569645 -0.224051 -2.850797
H -0.300673 -1.658486 1.472445
H 1.468953 -1.621490 1.450139
H 1.422584 0.461358 2.945192
H -0.345691 0.365427 2.994839
H 0.631999 -0.930630 3.688898
H -0.795192 2.010124 0.886650
H -0.795192 2.010124 -0.886650
H -3.075838 1.481614 0.000000
H -2.462281 0.082728 -0.885538
H -2.462281 0.082728 0.885538
H 1.468953 -1.621490 -1.450139
H -0.300673 -1.658486 -1.472445
H -0.345691 0.365427 -2.994839
H 1.422584 0.461358 -2.945192
H 0.631999 -0.930630 -3.688898