20

C -2.853967 -0.983318 0.000105
N -1.449317 -0.496253 -0.000136
C -1.264097 0.909433 -0.000186
O -2.216775 1.692846 0.000064
N 0.060882 1.391838 -0.000094
C 0.319384 2.848940 0.000055
C 1.142984 0.486647 -0.000061
N 2.481071 0.756050 0.000150
C 3.053598 -0.539483 -0.000163
N 2.162244 -1.564432 0.000282
C 0.910718 -0.937333 -0.000110
C -0.390703 -1.518794 -0.000275
O -0.779508 -2.672778 0.000121
H -3.562973 -0.137811 0.000014
H -3.030070 -1.607181 0.892053
H -3.030231 -1.607511 -0.891582
H -0.633124 3.406951 0.000090
H 0.907493 3.124436 -0.892387
H 0.907467 3.124264 0.892567
H 4.120038 -0.670668 0.000174