21

O -0.664694 -1.790639 0.784895
C -0.514679 -0.673788 0.296070
C 0.954745 -0.235792 0.117150
C 1.482372 0.805338 0.889003
C 2.819567 1.184963 0.735341
C 3.632663 0.527814 -0.194447
C 3.105824 -0.513924 -0.966026
C 1.770397 -0.897162 -0.808000
C -1.434358 0.289737 -0.142940
H -1.028394 1.202773 -0.553541
C -2.845089 0.181208 -0.111546
C -3.588983 1.409909 -0.680535
O -3.557381 -0.732009 0.297147
H 0.841228 1.314750 1.606261
H 3.226195 1.991063 1.337873
H 4.668907 0.823660 -0.315638
H 3.735007 -1.027904 -1.685926
H 1.355249 -1.715636 -1.393783
H -3.314211 1.568882 -1.722776
H -4.667219 1.250322 -0.621696
H -3.334915 2.303453 -0.111534