29

C 3.612493 -0.287979 -0.002642
C 2.170143 -0.676033 -0.006444
C 1.853041 -2.130724 -0.092413
C 1.207756 0.266337 0.095398
O -0.109933 0.043481 0.056852
Si -1.701095 -0.225699 0.010379
C -2.022927 -2.054245 -0.034857
C -2.470831 0.517461 1.528601
C -2.388263 0.572709 -1.521755
O 1.540374 1.591720 0.299517
C 0.634258 2.593191 -0.223515
H 4.149863 -0.754652 -0.838365
H 3.748434 0.800812 -0.085542
H 4.100972 -0.606884 0.928477
H 2.338757 -2.685929 0.722102
H 0.774993 -2.333483 -0.029955
H 2.212113 -2.552675 -1.041483
H -1.632911 -2.560000 0.860262
H -3.112599 -2.221112 -0.074392
H -1.574511 -2.526746 -0.920599
H -2.335203 1.606471 1.574816
H -3.551924 0.303254 1.530725
H -2.032920 0.085958 2.442062
H -1.933177 0.150582 -2.429979
H -3.474199 0.382981 -1.561911
H -2.230904 1.659007 -1.535046
H 0.412420 2.400644 -1.276853
H -0.278620 2.612485 0.380715
H 1.217198 3.513168 -0.095538