17

F 1.973681 -1.060682 -0.188774
C 1.166993 -0.003645 0.017198
C -0.136533 -0.012196 -0.834865
N -1.007927 -1.192281 -0.597315
C -2.138490 -0.788788 0.303659
C -2.077868 0.741767 0.465126
C -1.007885 1.225169 -0.528920
F 0.999319 0.004663 1.349504
F 1.972794 1.047601 -0.210633
H 0.170065 -0.039562 -1.916777
H -0.498539 -1.997019 -0.225385
H -3.075197 -1.104180 -0.206443
H -2.107422 -1.302676 1.283091
H -3.055386 1.209161 0.259564
H -1.810994 1.020991 1.499970
H -0.436252 2.079686 -0.132039
H -1.480212 1.581490 -1.464844