28

C -0.093660 2.812736 0.599667
Si -0.043946 1.293681 -0.474343
H -0.100150 1.698775 -1.887113
C 1.528014 0.309481 -0.228186
C 1.813454 -0.724955 -1.137311
C 2.974477 -1.493066 -1.001324
C 3.865276 -1.235688 0.045894
C 3.591501 -0.211246 0.955950
C 2.427998 0.556059 0.818958
C -1.525663 0.205222 -0.130780
C -2.756588 0.490867 -0.745281
C -3.883398 -0.296509 -0.483753
C -3.791296 -1.379756 0.395738
C -2.571953 -1.673520 1.012746
C -1.445760 -0.884412 0.750669
H -0.998296 3.408035 0.391301
H -0.109921 2.572751 1.673146
H 0.776640 3.463247 0.417278
H 1.130393 -0.944846 -1.962585
H 3.185227 -2.290895 -1.710152
H 4.769389 -1.832255 0.151171
H 4.282471 -0.009213 1.771302
H 2.235016 1.349578 1.543102
H -2.852233 1.330838 -1.437114
H -4.831278 -0.066694 -0.965071
H -4.667123 -1.992918 0.598787
H -2.497493 -2.516206 1.696519
H -0.501809 -1.133023 1.242325