21

N 5.994556 -0.845221 -0.087520
C 4.882810 -0.513720 -0.039194
C 3.526512 -0.105878 0.022003
C 3.108341 0.851111 0.972184
C 1.788483 1.250432 1.034511
C 0.801860 0.710200 0.145784
C -0.529837 1.138765 0.243597
H -0.718798 1.915524 0.986270
S -1.800757 0.639355 -0.604031
O -1.530761 -0.094157 -1.836432
C -2.553006 -0.712055 0.483765
F -2.897981 -0.295538 1.710821
F -3.672314 -1.263923 0.000287
F -1.743591 -1.754646 0.709507
O -2.894861 1.605543 -0.651751
C 1.249479 -0.252983 -0.810906
C 2.569707 -0.647888 -0.867247
H 3.841477 1.272469 1.658816
H 1.474665 1.984441 1.768609
H 0.528064 -0.672903 -1.519354
H 2.888665 -1.384696 -1.604256