21

C 2.053604 -0.536864 1.406870
C 2.087988 0.009212 0.007178
C 3.457222 0.235523 -0.564530
N 1.068199 0.307028 -0.727078
C -0.295498 0.144379 -0.347335
C -1.036640 1.275706 0.046482
C -2.402102 1.144382 0.300303
C -3.033439 -0.097769 0.170212
C -2.293026 -1.217366 -0.222811
C -0.925283 -1.108475 -0.478900
H 2.268164 0.254357 2.139235
H 1.072817 -0.958578 1.671466
H 2.796957 -1.329469 1.559100
H 3.983107 -0.716715 -0.716783
H 3.416516 0.739994 -1.544636
H 4.070787 0.858648 0.098562
H -0.546399 2.242424 0.134275
H -2.980496 2.017212 0.600888
H -4.097764 -0.190884 0.369642
H -2.785761 -2.182865 -0.330514
H -0.352267 -1.975682 -0.796500