29

C 1.921048 0.883958 0.158126
C 3.267019 0.600506 0.325990
C 3.694553 -0.727281 0.150949
C 2.790326 -1.734595 -0.192444
C 1.424500 -1.451633 -0.363132
C 0.991490 -0.146827 -0.173519
C -0.353007 0.479743 -0.278472
N -1.477423 -0.294750 -0.695556
C -2.743343 0.469058 -0.953584
C -3.661209 0.285392 0.272753
C -3.116687 -0.943079 1.024960
C -1.852659 -1.394701 0.260279
C -0.245586 1.813953 -0.036976
C 1.188804 2.200324 0.253438
H 3.979187 1.379430 0.581922
H 4.748240 -0.968740 0.280393
H 3.145445 -2.753237 -0.335150
H 0.728579 -2.236213 -0.651866
H -2.555778 1.531845 -1.188195
H -3.199388 0.014886 -1.860598
H -3.641516 1.180113 0.917791
H -4.710000 0.141817 -0.032017
H -2.874583 -0.687675 2.070343
H -3.862742 -1.753053 1.065629
H -2.062281 -2.293994 -0.356786
H -1.025078 -1.649442 0.948145
H -1.021021 2.552608 -0.033919
H 1.290227 2.661397 1.253310
H 1.571166 2.934608 -0.480327