34

C -2.188661 3.073012 0.339836
O -1.891892 1.887486 -0.443251
C -1.702561 0.706447 0.242939
O -1.814616 0.637148 1.440504
C -1.379114 -0.380392 -0.798997
H -1.269784 0.093761 -1.808854
C -2.497967 -1.443407 -0.766921
C -2.017019 -2.506358 0.238000
C -0.504677 -2.270628 0.429987
N -0.139671 -1.135032 -0.484433
C 1.080750 -0.418627 -0.242957
C 1.249207 0.867353 -0.611199
C 2.562366 1.582412 -0.512470
C 3.567284 0.866439 0.402068
C 3.575878 -0.637356 0.106848
C 2.190519 -1.251828 0.356937
H -2.540226 3.783837 -0.414314
H -2.957881 2.852146 1.087048
H -1.265952 3.410251 0.822110
H -3.474354 -1.018336 -0.481926
H -2.625478 -1.882293 -1.773785
H -2.549286 -2.402000 1.201005
H -2.221842 -3.524499 -0.130985
H -0.273249 -2.049280 1.492084
H 0.088069 -3.156099 0.122311
H 0.449215 1.471803 -1.031336
H 2.988809 1.683905 -1.533258
H 2.396805 2.615715 -0.146595
H 4.577851 1.291260 0.265761
H 3.297867 1.040179 1.461633
H 3.873361 -0.808738 -0.946495
H 4.330659 -1.149447 0.730985
H 2.016100 -1.345427 1.449407
H 2.173050 -2.280986 -0.056212