27

O -0.286741 -2.376687 -0.569462
C -0.644875 -1.229858 -0.378594
C 0.065798 0.000204 -0.260374
C -0.644883 1.230403 -0.377011
O -2.070884 1.164563 -0.290750
C -2.700058 -0.000158 0.243234
C -2.582524 -0.001157 1.765868
C -4.125702 0.000289 -0.295552
O -2.070872 -1.164164 -0.292272
O -0.286806 2.377507 -0.566349
C 1.510369 0.000054 -0.095296
C 2.243743 1.207963 0.001842
C 3.622033 1.202989 0.195882
C 4.328039 -0.000278 0.300081
C 3.621400 -1.203392 0.198400
C 2.243107 -1.208046 0.004388
H -3.045110 0.890639 2.196093
H -3.043588 -0.894373 2.194796
H -1.524183 -0.000497 2.065565
H -4.102674 -0.003531 -1.394603
H -4.665820 -0.892795 0.030607
H -4.662537 0.897653 0.024400
H 1.721004 2.163377 -0.087789
H 4.154742 2.148037 0.265604
H 5.398409 -0.000403 0.452006
H 4.153617 -2.148569 0.270100
H 1.719888 -2.163358 -0.083320