40

C 2.584747 -0.975922 -1.648721
C 1.084225 -1.169151 -1.391854
C 0.768761 -2.642656 -1.103229
Si 0.404095 -0.003422 -0.051795
C 1.071908 -0.489967 1.661257
C 2.594373 -0.310040 1.749674
C 0.374973 0.236271 2.817675
C 0.835431 1.789991 -0.500378
C 0.473261 2.192226 -1.934822
C 0.260617 2.798168 0.502727
N -1.385452 -0.207902 -0.022528
C -2.121014 -1.190148 0.684172
C -3.472347 -1.026547 0.415863
C -3.604232 0.080861 -0.482999
C -2.329806 0.564447 -0.739761
H 2.819325 0.031001 -2.014462
H 3.184233 -1.150132 -0.739522
H 2.942407 -1.683719 -2.407544
H 0.528580 -0.877100 -2.330978
H 1.318411 -3.023758 -0.234162
H -0.302221 -2.812260 -0.925577
H 1.049672 -3.272383 -1.957615
H 0.848912 -1.592478 1.756721
H 2.885621 0.747559 1.765816
H 2.982678 -0.760529 2.671958
H 3.121343 -0.791138 0.908094
H 0.503259 1.329650 2.752912
H -0.705085 0.038756 2.843039
H 0.785125 -0.080810 3.784110
H 1.963398 1.806833 -0.405174
H -0.614180 2.166662 -2.106407
H 0.803239 3.217753 -2.145587
H 0.942260 1.543666 -2.684501
H 0.495452 2.527879 1.546461
H 0.668803 3.800698 0.326943
H -0.832157 2.877218 0.428196
H -1.640665 -1.916754 1.315280
H -4.280990 -1.611755 0.801697
H -4.526715 0.454694 -0.875689
H -2.025243 1.388464 -1.368814