31

O -1.121987 1.155716 2.205082
C -1.538121 0.500594 1.263393
C -1.129253 -0.739233 0.729955
C 0.069057 -1.413298 1.312890
C 1.339019 -0.831513 0.743253
C 1.781453 0.437482 1.165952
C 2.961232 0.977730 0.667911
C 3.722301 0.250100 -0.268645
C 4.944011 0.793068 -0.771737
N 5.937195 1.230613 -1.177430
C 3.277639 -1.007410 -0.712462
C 2.093127 -1.540882 -0.207367
C -1.855850 -1.407157 -0.278843
O -2.954216 -0.686571 -0.847062
C -3.026635 0.733017 -0.695697
C -2.087129 1.398361 -1.699728
C -4.498922 1.098611 -0.843940
O -2.655836 1.125553 0.630383
O -1.751481 -2.523342 -0.754703
H 0.064879 -1.293777 2.418906
H 0.011095 -2.506592 1.120777
H 1.159082 1.001439 1.874274
H 3.296977 1.960020 0.995607
H 3.856261 -1.560049 -1.450062
H 1.731828 -2.505392 -0.564576
H -2.343214 1.115747 -2.723997
H -2.115693 2.486677 -1.603205
H -1.050553 1.078863 -1.519792
H -5.087865 0.567060 -0.083454
H -4.650205 2.171426 -0.694988
H -4.876357 0.802627 -1.826688