37

C -0.535543 1.465040 -0.191891
H -0.468801 1.296398 -1.288076
C -0.032300 0.206208 0.529057
C -0.929246 -0.978298 0.200492
C -0.855164 -1.614753 -1.045245
C -1.712885 -2.666751 -1.362139
C -2.660583 -3.102983 -0.434190
C -2.743877 -2.476482 0.808634
C -1.885653 -1.420563 1.120974
C 1.430357 -0.115159 0.276382
C 2.168196 -0.744870 1.287579
C 3.501618 -1.100036 1.093749
C 4.127309 -0.828529 -0.124045
C 3.406873 -0.199594 -1.138535
C 2.070899 0.153950 -0.940308
N -1.896708 1.785743 0.227683
C -2.152104 3.216145 0.008968
C -0.772215 3.828458 -0.301083
C 0.214609 2.750182 0.151363
H -0.149745 0.411286 1.604507
H -0.110045 -1.287774 -1.774637
H -1.637997 -3.151111 -2.337311
H -3.329132 -3.929789 -0.679188
H -3.479959 -2.811664 1.541550
H -1.959488 -0.928281 2.093334
H 1.682906 -0.959485 2.243139
H 4.055016 -1.588855 1.897511
H 5.171693 -1.102910 -0.280234
H 3.886651 0.019931 -2.093908
H 1.529990 0.650620 -1.748200
H -2.586451 1.188959 -0.219592
H -2.859014 3.396848 -0.816945
H -2.594725 3.667150 0.912391
H -0.664780 3.987486 -1.384098
H -0.614448 4.795922 0.193262
H 0.369069 2.791202 1.242189
H 1.194468 2.822076 -0.338051