29

C 1.225924 -0.325791 -0.513548
H 0.983015 -0.353742 -1.587926
C 0.021362 -0.889561 0.234047
N -1.258789 -0.393599 -0.218337
C -2.383205 -1.114705 0.359756
C -3.603883 -0.285250 -0.050481
C -3.042821 1.148670 -0.207072
C -1.541207 1.004940 0.080423
N 1.546386 1.064642 -0.125921
C 2.835751 1.039320 0.568022
C 3.609099 -0.120655 -0.062077
C 2.499876 -1.160560 -0.219065
H 0.018730 -1.984130 0.098252
H 0.170162 -0.700529 1.324701
H -2.413727 -2.153437 -0.002238
H -2.298752 -1.149950 1.469720
H -4.005252 -0.649046 -1.006122
H -4.408543 -0.351446 0.693230
H -3.205840 1.518983 -1.228198
H -3.513245 1.864250 0.480055
H -1.327778 1.223348 1.151042
H -0.911771 1.678745 -0.512765
H 1.643221 1.626506 -0.967652
H 3.337767 2.013043 0.486552
H 2.677619 0.838354 1.641990
H 3.995831 0.185485 -1.047248
H 4.454587 -0.471629 0.545794
H 2.368854 -1.704082 0.731433
H 2.696567 -1.906466 -1.000842