27

C -4.338169 -1.330954 -0.298682
O -3.800737 -0.156519 0.265881
C -2.486471 0.096681 0.093298
C -1.991471 1.264651 0.692481
C -0.651392 1.600238 0.570008
C 0.234689 0.787959 -0.154134
C -0.268263 -0.377332 -0.738838
C -1.612968 -0.728519 -0.626219
C 1.655344 1.182148 -0.335145
C 2.044845 2.459392 -0.463942
N 2.600612 0.138935 -0.473652
C 2.706310 -0.941080 0.368864
C 3.793922 -1.919704 -0.012442
O 1.969550 -1.107897 1.319079
H -3.852905 -2.230605 0.111936
H -5.402039 -1.345209 -0.039723
H -4.232987 -1.333502 -1.395140
H -2.681102 1.888352 1.262398
H -0.276916 2.500099 1.061589
H 0.403361 -1.024789 -1.306285
H -1.965431 -1.643086 -1.100889
H 3.099293 2.713969 -0.582942
H 1.311444 3.264907 -0.486595
H 3.361201 0.298185 -1.124143
H 4.726837 -1.403966 -0.276246
H 3.967805 -2.600204 0.826987
H 3.468409 -2.502246 -0.886557