31

C -0.344583 2.223630 -0.008698
C -0.106327 0.916223 -0.253293
C 1.282814 0.385718 -0.094343
C 2.056713 0.724091 1.021798
C 3.368413 0.263628 1.142889
C 3.921643 -0.544279 0.150122
C 3.155447 -0.890830 -0.965372
C 1.846059 -0.431920 -1.085199
N -1.040161 0.011625 -0.759107
C -1.109604 -1.329394 -0.174060
C -1.987529 -1.350660 1.078305
C -3.386926 -0.821022 0.762679
C -3.305962 0.556599 0.102650
C -2.366434 0.504120 -1.106387
H -1.336088 2.667330 -0.090360
H 0.486563 2.880677 0.244648
H 1.618270 1.344448 1.805846
H 3.957405 0.531906 2.021550
H 4.945959 -0.907989 0.245529
H 3.582616 -1.521294 -1.747056
H 1.242127 -0.701809 -1.954058
H -1.537000 -2.004933 -0.934612
H -0.098564 -1.689502 0.050535
H -2.037375 -2.374714 1.478271
H -1.514455 -0.721323 1.852162
H -3.885773 -1.522766 0.071141
H -4.002763 -0.780361 1.673332
H -4.302309 0.898708 -0.215378
H -2.925024 1.290981 0.830582
H -2.267781 1.484566 -1.591453
H -2.787022 -0.190725 -1.853469