47

O 0.245657 -5.450725 -0.182370
O -4.986308 2.484722 -0.302916
O 4.386906 3.082327 -0.980071
C -0.004239 0.097310 1.074940
C 0.129551 -1.375238 0.708498
C -1.360544 0.671811 0.685072
C 1.150420 0.936802 0.546189
C 0.887136 -1.826504 -0.370018
C -1.831917 1.819143 1.343290
C 2.366815 0.943430 1.231327
C -0.570570 -2.331557 1.462614
C -2.146574 0.136755 -0.333377
C 1.066133 1.669833 -0.645095
C 0.953010 -3.184324 -0.705222
C -3.039788 2.404622 0.997772
C 3.476013 1.647321 0.759559
C -0.516738 -3.680081 1.147931
C -3.367700 0.714780 -0.699234
C 2.159943 2.374703 -1.133070
C 0.247646 -4.120208 0.054798
C -3.821386 1.855098 -0.031450
C 3.376007 2.368581 -0.436008
C 0.998915 -5.935312 -1.269494
C -5.794231 1.974456 -1.338012
C 5.627209 3.101622 -0.312570
H 0.051022 0.149572 2.174758
H 1.451205 -1.112051 -0.972801
H -1.232331 2.261319 2.143405
H 2.458094 0.379024 2.163079
H -1.174478 -2.005520 2.313647
H -1.810233 -0.758228 -0.860987
H 0.126387 1.692140 -1.201030
H 1.559517 -3.491048 -1.556181
H -3.409230 3.292788 1.512296
H 4.403206 1.628033 1.330503
H -1.057057 -4.423002 1.736149
H -3.950674 0.262238 -1.500081
H 2.097372 2.946707 -2.059872
H 0.862565 -7.021709 -1.287409
H 2.069950 -5.706911 -1.149189
H 0.646135 -5.510286 -2.222893
H -6.675408 2.621974 -1.397451
H -6.116615 0.942929 -1.123713
H -5.265032 1.990918 -2.304209
H 6.298939 3.720893 -0.916353
H 6.051327 2.088847 -0.222349
H 5.534635 3.542527 0.692902