42

C -1.357898 3.284948 1.235330
C -1.797184 2.209455 0.240025
C -2.013570 2.821459 -1.145202
C -0.833261 1.008329 0.252902
H -0.797179 0.633590 1.291933
C 0.593494 1.403353 -0.130557
N 1.438049 0.220670 -0.179591
C 0.867790 -1.030408 -0.317867
N -0.353699 -1.312034 -0.503744
C -1.284627 -0.190980 -0.613727
H -1.306147 0.131798 -1.670938
C -2.679986 -0.648453 -0.240196
C -3.777436 -0.389290 -1.064466
C -5.063800 -0.774456 -0.680322
C -5.263387 -1.429870 0.533285
C -4.169557 -1.705482 1.357402
C -2.888084 -1.319561 0.970395
S 2.137145 -2.281773 -0.206758
C 3.381139 -1.049970 -0.021988
C 4.750834 -1.227988 0.121007
C 5.565765 -0.098699 0.248911
C 5.007612 1.179997 0.228545
C 3.630220 1.364291 0.084451
C 2.816079 0.238614 -0.035069
H -2.142848 4.046155 1.350024
H -1.154526 2.853809 2.227134
H -0.448105 3.803585 0.894916
H -2.767632 1.818476 0.586707
H -1.086701 3.261237 -1.544330
H -2.384066 2.087842 -1.874223
H -2.756932 3.629428 -1.084337
H 0.618241 1.920223 -1.104499
H 1.008342 2.086203 0.624749
H -3.626998 0.112341 -2.023529
H -5.910519 -0.565375 -1.336286
H -6.267379 -1.732624 0.835072
H -4.317292 -2.227271 2.304539
H -2.029043 -1.550558 1.604798
H 5.179753 -2.230876 0.131979
H 6.643088 -0.223044 0.361190
H 5.653116 2.054342 0.321019
H 3.203204 2.366884 0.058410