35

C 4.721834 -0.464615 0.623353
C 3.506082 0.423884 0.468009
O 3.487259 1.549173 0.927849
N 2.430141 -0.101625 -0.218483
C 2.348681 -1.486524 -0.662744
C 1.248394 -2.199807 0.107928
N -0.000004 -1.487361 -0.069171
C -1.248404 -2.199806 0.107919
C -2.348686 -1.486521 -0.662759
N -2.430146 -0.101620 -0.218501
C -3.506087 0.423896 0.467986
C -4.721826 -0.464612 0.623377
O -3.487235 1.549171 0.927862
C -1.206790 0.606252 -0.341425
C -1.141272 1.975788 -0.593550
N -0.000001 2.650448 -0.716935
C 1.141270 1.975788 -0.593545
C 1.206787 0.606251 -0.341416
C -0.000002 -0.131443 -0.239754
H 5.488427 0.123224 1.137017
H 4.489169 -1.355237 1.223947
H 5.107791 -0.797726 -0.349365
H 2.119689 -1.505296 -1.739435
H 3.302167 -1.996893 -0.512379
H 1.124183 -3.221979 -0.277643
H 1.528574 -2.271684 1.174497
H -1.124192 -3.221978 -0.277652
H -1.528591 -2.271683 1.174486
H -2.119687 -1.505293 -1.739448
H -3.302174 -1.996889 -0.512400
H -4.489133 -1.355236 1.223957
H -5.488403 0.123219 1.137076
H -5.107820 -0.797719 -0.349327
H -2.070860 2.537166 -0.688838
H 2.070857 2.537165 -0.688831