12

O 2.374530 -1.259378 -0.000035
C 1.242086 -0.771151 0.000055
C 0.000001 -1.447891 0.000042
H 0.000001 -2.535509 0.000017
C -1.242085 -0.771152 0.000019
N -1.146962 0.645286 0.000022
C -0.000001 1.393259 0.000028
N 1.146961 0.645287 0.000019
O -0.000002 2.614747 -0.000106
O -2.374529 -1.259381 0.000010
H -2.022674 1.157601 -0.000042
H 2.022673 1.157603 -0.000064