49

C 2.836795 4.459950 -2.285185
C 2.698786 3.314305 -1.329524
S 1.604558 1.998679 -1.630310
C 3.352303 3.105227 -0.144838
C 2.969163 1.884365 0.504383
C 2.027621 1.151037 -0.172608
B 1.345405 -0.291760 0.205401
C -0.293203 -0.143846 0.127095
C -0.979842 0.819084 0.885764
C -2.367715 0.926726 0.846234
C -3.086862 1.980921 1.637345
F -3.513649 2.983322 0.856066
F -4.174749 1.489624 2.244185
F -2.318430 2.526316 2.582290
C -3.128821 0.081261 0.033128
C -2.462066 -0.866359 -0.732516
C -3.225771 -1.803239 -1.622473
F -4.543679 -1.585390 -1.586687
F -2.843819 -1.693802 -2.900975
F -3.030894 -3.082870 -1.279175
C -1.067161 -0.977170 -0.683498
O 1.760044 -1.396966 -0.687201
C 2.660645 -2.228427 0.012550
C 2.547318 -3.654337 -0.514607
C 4.090995 -1.718322 -0.197450
C 2.198184 -2.053199 1.498749
C 0.980124 -2.928446 1.817593
C 3.291868 -2.311587 2.528610
O 1.822747 -0.693239 1.546561
H 3.190798 4.125618 -3.272007
H 1.879070 4.979192 -2.438971
H 3.560113 5.186618 -1.891848
H 4.087046 3.810077 0.249713
H 3.381294 1.540347 1.455049
H -0.408990 1.500102 1.523496
H -4.216108 0.161755 0.002692
H -0.556484 -1.738291 -1.280639
H 2.912916 -3.695574 -1.551643
H 3.151692 -4.349026 0.089058
H 1.503560 -3.995708 -0.506966
H 4.210674 -0.718689 0.243734
H 4.840663 -2.395808 0.237850
H 4.277201 -1.641305 -1.279195
H 1.244392 -3.992977 1.902448
H 0.554420 -2.596348 2.776271
H 0.209439 -2.815447 1.041706
H 4.114689 -1.594432 2.412138
H 2.880266 -2.198796 3.542847
H 3.693894 -3.332178 2.433502