45

C 3.291502 0.026982 3.470641
C 1.877130 0.057195 3.007198
O 1.663160 0.007154 1.670635
C 0.315242 0.043057 1.419792
C -0.326595 0.116475 2.628343
C 0.680131 0.126215 3.655769
B -0.188643 -0.008500 -0.122971
C 0.530877 1.153548 -0.990644
O 0.440562 2.449964 -0.549377
C 1.069964 3.270631 -1.424417
C 1.080131 4.724901 -1.106133
C 1.582385 2.532824 -2.449779
C 1.233549 1.166171 -2.166060
C 0.156764 -1.441714 -0.798343
O 1.471000 -1.828244 -0.881467
C 1.549560 -3.038799 -1.484123
C 2.907489 -3.623425 -1.659358
C 0.296469 -3.467783 -1.806181
C -0.600561 -2.434682 -1.362044
C -1.789323 0.227229 -0.168025
O -2.608676 -0.648766 0.501117
C -3.901816 -0.283105 0.325433
C -4.940322 -1.123665 0.982117
C -3.955236 0.831847 -0.456282
C -2.590516 1.158992 -0.772765
H 3.796004 -0.897580 3.151268
H 3.863230 0.873350 3.060853
H 3.327186 0.081255 4.565293
H -1.405702 0.152004 2.758708
H 0.541780 0.176934 4.733325
H 0.057340 5.125199 -1.036595
H 1.576578 4.917884 -0.142992
H 1.615877 5.274582 -1.889325
H 2.141518 2.923089 -3.297068
H 1.478750 0.285292 -2.755590
H 3.544541 -2.975756 -2.280596
H 3.412477 -3.752402 -0.689991
H 2.831793 -4.604013 -2.144605
H 0.052086 -4.405600 -2.299649
H -1.685335 -2.424134 -1.441416
H -4.794212 -1.157254 2.072307
H -5.936516 -0.712811 0.778566
H -4.908389 -2.159597 0.611841
H -4.860139 1.351622 -0.762425
H -2.234966 1.992201 -1.375146