13

C -2.359110 -0.189312 0.150229
C -1.164714 -0.169191 -0.440448
C 0.000000 0.678484 -0.000001
C 1.164714 -0.169190 0.440448
C 2.359111 -0.189312 -0.150229
H -3.161574 -0.836362 -0.209727
H -2.574976 0.445499 1.014797
H -0.978495 -0.822660 -1.300701
H 0.323090 1.329087 -0.829004
H -0.323090 1.329089 0.829001
H 0.978495 -0.822657 1.300703
H 3.161574 -0.836361 0.209729
H 2.574976 0.445497 -1.014797