30

O -0.642670 -1.591865 -0.504334
C -0.817649 -0.405965 -0.161803
C 0.238239 0.529012 0.099476
H 0.045528 1.574831 0.304188
N 1.579995 0.213867 0.063350
C 2.493051 1.216476 0.298750
C 3.851333 0.994570 0.287805
C 4.361690 -0.281275 0.032080
C 3.436138 -1.292032 -0.205392
C 2.073805 -1.042360 -0.189332
N -2.110087 0.064273 -0.029459
C -2.459238 1.380938 0.472663
C -2.529747 2.447937 -0.615764
C -3.203106 -0.826380 -0.383570
C -3.650704 -1.706419 0.778593
H 2.065288 2.197845 0.494581
H 4.508151 1.841919 0.484575
H 5.433531 -0.472650 0.019679
H 3.755788 -2.313616 -0.412741
H 1.315094 -1.796363 -0.374200
H -3.437720 1.293954 0.970015
H -1.751662 1.674840 1.261152
H -1.554093 2.567949 -1.108443
H -3.264956 2.166145 -1.383724
H -2.828015 3.418413 -0.194597
H -4.040026 -0.206136 -0.740555
H -2.878232 -1.456640 -1.221025
H -4.497522 -2.343947 0.486112
H -2.818528 -2.351063 1.093313
H -3.963483 -1.094540 1.638064