13

C 2.379818 0.834912 0.209502
C 1.177909 -0.065651 -0.079308
O 1.381434 -1.237873 -0.401873
N 0.000001 0.593685 0.000011
C -1.177911 -0.065646 0.079328
C -2.379814 0.834916 -0.209514
O -1.381438 -1.237876 0.401865
H 2.409650 1.661027 -0.515568
H 2.280809 1.288167 1.206514
H 3.312302 0.260307 0.151172
H -2.409657 1.661039 0.515545
H -2.280788 1.288157 -1.206531
H -3.312300 0.260313 -0.151193