31

N 1.686241 0.207081 -0.062689
C 2.200711 -1.151581 -0.059765
C 3.632077 -1.211789 -0.584712
C 4.537806 -0.220820 0.139282
C 3.951111 1.183251 0.025863
C 2.532944 1.208649 0.578254
C 0.331989 0.405712 -0.002065
C -0.646592 -0.531621 -0.009417
C -2.081683 -0.226089 -0.028918
C -3.003146 -1.245495 0.275685
C -4.375362 -1.005262 0.290278
C -4.871263 0.265922 -0.001482
C -3.972732 1.287474 -0.317542
C -2.601598 1.045666 -0.339470
H 2.150293 -1.576957 0.964642
H 1.551263 -1.766633 -0.697230
H 4.005024 -2.240876 -0.480031
H 3.623572 -0.975316 -1.661328
H 4.611603 -0.499783 1.204817
H 5.556282 -0.254352 -0.273837
H 4.562416 1.915596 0.572729
H 3.930938 1.491209 -1.032346
H 2.070869 2.194297 0.424651
H 2.566412 1.030419 1.672661
H 0.058416 1.465215 0.051755
H -0.390097 -1.591875 0.029348
H -2.626854 -2.244023 0.510761
H -5.062383 -1.818345 0.532566
H -5.945187 0.457308 0.008051
H -4.344653 2.284195 -0.562864
H -1.927171 1.856246 -0.621463