33

C 4.508197 0.006499 0.152188
N 3.122416 -0.073536 -0.252426
C 2.431055 1.186344 -0.066243
C 0.999223 1.100181 -0.567371
C 2.414945 -1.123361 0.452968
C 0.980234 -1.243490 -0.034923
N 0.276855 0.018861 0.096004
C -1.125938 -0.015192 -0.042746
C -1.807404 -1.136353 -0.359476
C -3.309632 -1.253325 -0.313989
C -3.947206 -0.110785 0.469423
C -3.348816 1.213461 0.013819
C -1.850285 1.269519 0.306624
H 4.621405 0.245601 1.232019
H 5.011739 -0.952478 -0.036972
H 5.024975 0.787293 -0.424158
H 2.419174 1.480483 1.008358
H 2.960092 1.976045 -0.620971
H 0.508953 2.059816 -0.371708
H 1.012960 0.941518 -1.665622
H 2.930875 -2.081671 0.289604
H 2.406945 -0.930118 1.550053
H 0.982483 -1.596162 -1.088047
H 0.462227 -2.001066 0.568832
H -1.260335 -2.037593 -0.639582
H -3.718762 -1.268655 -1.340982
H -3.588186 -2.223420 0.128175
H -5.039345 -0.115747 0.338972
H -3.747548 -0.246873 1.546090
H -3.512791 1.322829 -1.071643
H -3.848538 2.065035 0.498111
H -1.669478 1.479651 1.375490
H -1.417982 2.117256 -0.242703