13

N -2.380846 0.129951 -0.198773
C -1.241524 -0.711608 0.095840
C 0.034314 0.092038 0.018557
O 1.108939 -0.693501 -0.027287
C 2.371752 -0.036119 -0.031182
O 0.089984 1.294435 0.036848
H -3.239194 -0.369356 0.022909
H -2.355481 0.942833 0.415896
H -1.236807 -1.180274 1.100493
H -1.163067 -1.537826 -0.625980
H 2.495755 0.561218 0.881756
H 3.129112 -0.823834 -0.075389
H 2.456960 0.624242 -0.904051