29

C 0.160828 -2.052034 0.261231
C -0.172409 -0.776343 0.002878
O 0.723046 0.202956 -0.248898
Si 2.411976 0.228063 -0.026817
C 3.231434 -0.898596 -1.276564
C 2.854781 2.008572 -0.363712
C 2.811155 -0.248297 1.737835
C -1.578824 -0.282131 -0.018242
C -2.665473 -1.155811 -0.170370
C -3.970755 -0.671591 -0.164639
C -4.214211 0.695234 -0.014638
C -3.139920 1.573093 0.122690
C -1.832183 1.089271 0.116194
H -0.603450 -2.789506 0.496225
H 1.198769 -2.384523 0.250134
H 2.901850 -0.638925 -2.293743
H 4.323165 -0.765036 -1.229522
H 3.013935 -1.961876 -1.104938
H 2.356448 2.677771 0.352978
H 3.940963 2.160974 -0.279175
H 2.545313 2.297427 -1.378938
H 2.591381 -1.302836 1.953574
H 3.881061 -0.075520 1.930535
H 2.234215 0.375568 2.436884
H -2.491645 -2.222936 -0.314596
H -4.803294 -1.365999 -0.288116
H -5.237685 1.073400 -0.013431
H -3.319342 2.643689 0.234453
H -0.990262 1.773607 0.218325