11

C -0.761570 -2.951422 0.000000
C 0.195972 -1.780968 0.000000
O -0.582744 -0.589995 0.000000
C 0.000000 0.626072 0.000000
S -1.103863 1.913218 0.000000
S 1.688629 0.754623 0.000000
H -0.199312 -3.895027 0.000000
H -1.403313 -2.928822 0.891556
H -1.403313 -2.928822 -0.891556
H 0.852613 -1.787464 0.883413
H 0.852613 -1.787464 -0.883413