19

O -2.105717 1.374933 0.000068
C -2.145199 0.127551 -0.000212
C -3.509214 -0.543569 0.000081
C -1.044569 -0.750394 -0.000158
H -1.185458 -1.826647 -0.000166
N 0.291804 -0.353712 -0.000063
C 0.671994 0.958651 -0.000019
C 2.011484 1.314236 0.000064
C 3.007567 0.344048 0.000105
C 2.605631 -0.994105 0.000057
C 1.265840 -1.314646 -0.000024
H -4.069433 -0.207075 -0.884521
H -3.458900 -1.639326 -0.000017
H -4.069016 -0.207228 0.885008
H -0.154317 1.665935 -0.000060
H 2.255556 2.376434 0.000096
H 4.062802 0.614598 0.000170
H 3.330689 -1.807435 0.000084
H 0.909976 -2.343356 -0.000063