13

N 1.888888 0.176001 -0.095234
C 0.596176 -0.487744 0.024925
C -0.542950 0.519060 -0.057386
C -1.916593 -0.134235 0.024226
H 2.032772 0.772227 0.720014
H 2.635313 -0.516183 -0.053961
H 0.495382 -1.206314 -0.805593
H 0.481684 -1.077046 0.957524
H -0.428167 1.252561 0.759267
H -0.439125 1.084033 -0.997428
H -2.059295 -0.854331 -0.795784
H -2.039269 -0.680520 0.971697
H -2.721310 0.611088 -0.039690