19

C -1.899284 2.381554 -0.554486
N -0.784681 1.590172 -0.074387
C 0.085897 2.306216 0.850696
C -0.927665 0.225007 0.000192
C -2.196512 -0.393776 -0.030101
C -2.307896 -1.774815 0.051600
N -1.269098 -2.604556 0.161188
C -0.060746 -2.048465 0.155963
C 0.162459 -0.676691 0.062628
Br 1.956571 -0.102480 -0.149361
H -1.521717 3.369298 -0.851099
H -2.352352 1.911961 -1.436871
H -2.680890 2.530820 0.213477
H -0.527919 2.964192 1.487832
H 0.616828 1.611030 1.507845
H 0.825578 2.924568 0.319883
H -3.100634 0.210287 -0.086396
H -3.302871 -2.230070 0.040966
H 0.802937 -2.718780 0.205452