18

C -2.318456 0.032487 0.616618
Si -0.818059 -0.073722 -0.510674
H -1.271269 -0.247147 -1.922909
C 0.389226 1.383603 -0.313351
C 1.531573 0.781011 0.527230
C 1.778831 -0.655273 0.045094
C 0.430757 -1.403416 0.033040
H -2.977101 0.862709 0.323018
H -2.904403 -0.897848 0.584067
H -1.996852 0.198781 1.655806
H 0.769020 1.682915 -1.303800
H -0.054272 2.276959 0.149694
H 2.449340 1.387160 0.476926
H 1.229636 0.750425 1.588814
H 2.185830 -0.616980 -0.979872
H 2.531048 -1.164770 0.666913
H 0.170534 -1.726475 1.055273
H 0.449735 -2.304097 -0.596283