19

C -2.433932 0.316871 0.026953
N -1.089644 -0.140786 -0.216244
C -0.723920 -1.505711 0.121763
C 0.781269 -1.484234 -0.127262
N 1.104282 -0.110912 0.202166
C 2.435875 0.395146 -0.004434
C -0.001103 0.697106 -0.004299
N 0.047756 1.976028 0.009548
H -2.644575 0.467273 1.102179
H -2.615298 1.262197 -0.502418
H -3.143102 -0.422101 -0.368100
H -0.945757 -1.729989 1.182794
H -1.254522 -2.232781 -0.507848
H 1.331060 -2.193513 0.506691
H 1.011446 -1.710525 -1.186781
H 2.739086 0.346724 -1.067269
H 2.464693 1.442116 0.318203
H 3.153923 -0.187024 0.589783
H -0.882839 2.372245 -0.111841