17

C -0.016153 0.748632 1.257436
C -0.016153 -0.776288 1.205839
N -0.694905 -1.229129 0.000000
C -0.016153 -0.776288 -1.205839
C -0.016153 0.748632 -1.257436
C 0.636139 1.325326 0.000000
H -1.059978 1.097854 1.323851
H 0.506334 1.094195 2.162103
H 1.037946 -1.130279 1.248912
H -0.532457 -1.190058 2.084531
H -0.756518 -2.244276 0.000000
H 1.037946 -1.130279 -1.248912
H -0.532457 -1.190058 -2.084531
H 0.506334 1.094195 -2.162103
H -1.059978 1.097854 -1.323851
H 0.579865 2.424210 0.000000
H 1.708133 1.060457 0.000000