20

C -1.237099 -1.250340 -0.465362
C -0.034596 -1.747575 -0.138205
C 0.941128 -1.074577 0.780865
C 1.844429 -0.088109 0.028070
C 1.066206 0.975047 -0.746547
C 0.057160 1.758970 0.096310
C -1.312901 1.178712 0.344666
C -1.851053 -0.022511 0.070213
H -1.873278 -1.840738 -1.133157
H 0.275113 -2.691157 -0.599317
H 0.387332 -0.528910 1.562487
H 1.564534 -1.826612 1.286398
H 2.512753 0.405091 0.752622
H 2.493733 -0.642531 -0.668755
H 1.789038 1.689248 -1.169385
H 0.547814 0.518807 -1.604098
H 0.506936 2.014565 1.074201
H -0.117483 2.735924 -0.384686
H -2.002460 1.906296 0.788645
H -2.923676 -0.117691 0.274994