30

C 3.711440 -0.487493 0.290179
C 2.714111 -0.469395 -0.598992
C 1.337964 -1.010407 -0.375249
Si 0.106003 0.382404 0.048665
C 0.506434 1.011633 1.777717
C 0.319369 1.783048 -1.195284
C -1.673066 -0.310933 -0.018093
C -1.746233 -1.617978 0.781745
C -2.642988 0.711163 0.589456
C -2.071095 -0.583067 -1.474235
H 4.679846 -0.034517 0.069263
H 3.587594 -0.959797 1.269756
H 2.886617 0.020137 -1.565383
H 0.972962 -1.532471 -1.275230
H 1.333017 -1.731791 0.458055
H 1.576458 1.261904 1.843337
H -0.070815 1.917150 2.017218
H 0.287758 0.251276 2.542962
H 0.236988 1.417829 -2.230208
H -0.438703 2.567084 -1.047081
H 1.310729 2.246315 -1.076142
H -1.436495 -1.475925 1.829621
H -2.781020 -2.002431 0.791704
H -1.106238 -2.399497 0.343285
H -2.601003 1.678859 0.064186
H -3.680797 0.341240 0.518685
H -2.426756 0.893842 1.653477
H -1.383787 -1.292542 -1.962584
H -3.083345 -1.021318 -1.517945
H -2.082652 0.341568 -2.071735