35

H 0.003011 -0.076083 -2.476558
Ge -0.004985 -0.017802 -0.928639
C 0.304479 1.809137 -0.290356
C 1.483762 2.146729 0.387510
C 1.697164 3.447526 0.849213
C 0.729086 4.429047 0.639038
C -0.452095 4.107901 -0.032660
C -0.660597 2.807809 -0.493099
C -1.737207 -0.639518 -0.260266
C -2.419643 -1.676278 -0.913854
C -3.627392 -2.164659 -0.415234
C -4.171551 -1.620251 0.749094
C -3.505900 -0.588030 1.410363
C -2.298200 -0.101097 0.906652
C 1.416779 -1.172821 -0.236924
C 1.279466 -1.770194 1.025025
C 2.296620 -2.565239 1.555259
C 3.467679 -2.775723 0.826276
C 3.618959 -2.189343 -0.430901
C 2.599778 -1.393511 -0.956752
H 2.248539 1.384447 0.560850
H 2.620944 3.694078 1.375513
H 0.892686 5.445584 1.000970
H -1.213131 4.872794 -0.196664
H -1.593641 2.570714 -1.012979
H -2.006896 -2.112281 -1.827995
H -4.146055 -2.971059 -0.936837
H -5.117234 -1.999943 1.140166
H -3.929073 -0.158719 2.320276
H -1.790065 0.713522 1.431295
H 0.362809 -1.617902 1.602769
H 2.173699 -3.024428 2.537877
H 4.262850 -3.400164 1.237452
H 4.532599 -2.354976 -1.004587
H 2.731352 -0.944835 -1.945417