35

F -2.446854 1.301742 -1.372366
C -2.641004 0.087290 -0.821424
C -3.958941 -0.321654 -0.665585
C -4.201465 -1.573047 -0.098588
C -3.126190 -2.367300 0.286024
C -1.830022 -1.887315 0.094892
F -0.839130 -2.717105 0.476840
C -1.508348 -0.646664 -0.454885
B -0.018688 -0.041735 -0.762552
H 0.078112 0.030906 -1.984617
C 0.217977 1.475805 -0.178312
C -0.517118 2.148835 0.798359
F -1.579964 1.539514 1.354685
C -0.241265 3.434309 1.260854
C 0.852182 4.118465 0.735984
C 1.642779 3.504695 -0.233753
C 1.304225 2.219964 -0.646914
F 2.100700 1.658072 -1.576249
C 1.223103 -0.940984 -0.195766
C 2.235272 -1.490042 -0.978548
F 2.165193 -1.368080 -2.316191
C 3.339903 -2.178954 -0.476353
C 3.457978 -2.341711 0.901074
C 2.477482 -1.819850 1.746836
C 1.408772 -1.143823 1.171974
F 0.468854 -0.654399 2.002869
H -4.766138 0.337886 -0.984689
H -5.223962 -1.926710 0.039163
H -3.263578 -3.353874 0.729451
H -0.885744 3.870850 2.024350
H 1.089025 5.125368 1.081962
H 2.511628 3.995584 -0.672497
H 4.082269 -2.573358 -1.170709
H 4.312691 -2.875739 1.318423
H 2.528032 -1.928052 2.830419