47

C -0.622794 0.310906 1.888774
Si 0.082707 -0.005655 0.158569
C 1.061960 1.523119 -0.352186
C 1.915401 2.154304 0.569645
C 2.661189 3.277433 0.210999
C 2.564003 3.792917 -1.082756
C 1.720858 3.182423 -2.011350
C 0.977692 2.057930 -1.646753
C 1.224175 -1.507849 0.215549
C 2.614752 -1.399580 0.066670
C 3.436794 -2.526998 0.132689
C 2.878022 -3.786307 0.348072
C 1.495702 -3.915771 0.497922
C 0.680285 -2.786693 0.430897
C -1.295247 -0.332726 -1.083763
C -2.529882 0.332620 -0.979018
C -3.536725 0.124338 -1.922629
C -3.325342 -0.749550 -2.990637
C -2.106446 -1.417604 -3.110214
C -1.102646 -1.210721 -2.162008
N -1.367661 1.572931 1.943803
C -2.064775 1.535990 3.225442
C -2.636466 0.112609 3.261806
C -1.660815 -0.718306 2.387914
H 0.221616 0.310635 2.614333
H 2.005166 1.764466 1.588592
H 3.318852 3.751535 0.941620
H 3.145371 4.672328 -1.365397
H 1.639398 3.584612 -3.022751
H 0.316772 1.592177 -2.383116
H 3.067623 -0.419452 -0.106378
H 4.516379 -2.421357 0.011865
H 3.518428 -4.668843 0.395209
H 1.052503 -4.899570 0.662611
H -0.401947 -2.908166 0.540122
H -2.693975 1.013919 -0.139520
H -4.490777 0.645837 -1.825083
H -4.111974 -0.910625 -3.730033
H -1.937409 -2.104019 -3.941782
H -0.154643 -1.746680 -2.263600
H -0.751858 2.379851 1.857856
H -1.367645 1.680305 4.075106
H -2.838813 2.314186 3.284944
H -2.713620 -0.268644 4.288256
H -3.644419 0.097544 2.825042
H -2.204709 -1.177977 1.548875
H -1.172756 -1.528316 2.946255