22

C 0.016717 -0.296489 3.747659
C 0.006678 0.516728 2.459117
C 0.006678 -0.358322 1.213471
N 0.031035 0.437402 0.000000
C 0.006678 -0.358322 -1.213471
C 0.006678 0.516728 -2.459117
C 0.016717 -0.296489 -3.747659
H -0.865802 -0.951020 3.808814
H 0.910381 -0.936500 3.801373
H 0.014972 0.353478 4.633392
H -0.882800 1.169384 2.436694
H 0.882548 1.183124 2.416290
H 0.904090 -1.001920 1.221033
H -0.864297 -1.049596 1.251433
H -0.776299 1.061275 0.000000
H 0.904090 -1.001920 -1.221033
H -0.864297 -1.049596 -1.251433
H -0.882800 1.169384 -2.436694
H 0.882548 1.183124 -2.416290
H 0.014972 0.353478 -4.633392
H 0.910381 -0.936500 -3.801373
H -0.865802 -0.951020 -3.808814