28

C -1.032928 -0.484211 -0.421841
C -2.347872 -1.198540 -0.613243
C -3.400488 -0.705060 0.387415
C -3.547985 0.813372 0.321382
C -2.205981 1.499095 0.570041
C -1.133191 1.025422 -0.422981
N 0.025132 -1.172113 -0.245669
C 1.287685 -0.574961 -0.097359
C 1.951342 -0.664685 1.134441
C 3.228027 -0.127981 1.286079
C 3.870245 0.487001 0.209741
C 3.219228 0.563818 -1.021905
C 1.937062 0.039537 -1.178368
H -2.702385 -0.984544 -1.636985
H -2.176736 -2.279405 -0.531307
H -4.361734 -1.201453 0.190564
H -3.092245 -0.996697 1.405493
H -3.925306 1.100795 -0.675359
H -4.291558 1.158734 1.054883
H -2.307413 2.591909 0.502117
H -1.868178 1.272895 1.595197
H -0.161860 1.485864 -0.202399
H -1.426185 1.340144 -1.439887
H 1.448783 -1.159192 1.967249
H 3.727974 -0.196831 2.253941
H 4.872646 0.900222 0.329060
H 3.711859 1.039463 -1.871980
H 1.425548 0.096041 -2.141321