25

C -2.218509 -0.298837 1.068309
C -1.386955 -0.344158 0.021718
C -1.171873 0.877310 -0.850679
C -0.204589 1.918434 -0.264635
C 1.254922 1.495510 -0.075775
C 1.482922 0.359764 0.940401
C 1.759575 -1.015847 0.320925
C 0.797865 -1.467591 -0.776571
C -0.666123 -1.618699 -0.358087
H -2.779967 0.608949 1.307785
H -2.361340 -1.164713 1.719971
H -0.822659 0.571165 -1.849838
H -2.142688 1.374195 -0.999460
H -0.229419 2.806605 -0.916184
H -0.604668 2.240724 0.712246
H 1.692798 1.221965 -1.051767
H 1.807979 2.388512 0.253000
H 2.343854 0.610817 1.578625
H 0.616170 0.300792 1.616060
H 2.776436 -1.006354 -0.106697
H 1.773762 -1.772393 1.123622
H 0.864437 -0.775141 -1.631701
H 1.143635 -2.439312 -1.162077
H -0.750241 -2.344747 0.466656
H -1.211504 -2.056383 -1.213873