41

H -2.102963 1.789582 0.000000
Sn -0.980006 0.459799 0.000000
C 1.066271 1.191167 0.000000
C 2.068061 0.034623 0.000000
C 3.527412 0.487291 0.000000
C 4.512502 -0.676074 0.000000
C -1.224240 -0.730569 1.801950
C -0.623860 -0.062458 3.039991
C -0.740113 -0.908386 4.307272
C -0.126564 -0.236220 5.530317
C -1.224240 -0.730569 -1.801950
C -0.623860 -0.062458 -3.039991
C -0.740113 -0.908386 -4.307272
C -0.126564 -0.236220 -5.530317
H 1.221333 1.832101 -0.883289
H 1.221333 1.832101 0.883289
H 1.898006 -0.612681 0.880313
H 1.898006 -0.612681 -0.880313
H 3.701588 1.127343 -0.881334
H 3.701588 1.127343 0.881334
H 5.554658 -0.326678 0.000000
H 4.370549 -1.311126 0.887780
H 4.370549 -1.311126 -0.887780
H -2.294239 -0.940595 1.958254
H -0.737357 -1.704096 1.623674
H 0.443381 0.165121 2.864928
H -1.110571 0.913519 3.217658
H -1.804626 -1.128605 4.494074
H -0.252819 -1.882243 4.130954
H -0.621468 0.724252 5.740213
H -0.216237 -0.864404 6.427825
H 0.942693 -0.030243 5.369527
H -0.737357 -1.704096 -1.623674
H -2.294239 -0.940595 -1.958254
H -1.110571 0.913519 -3.217658
H 0.443381 0.165121 -2.864928
H -0.252819 -1.882243 -4.130954
H -1.804626 -1.128605 -4.494074
H 0.942693 -0.030243 -5.369527
H -0.216237 -0.864404 -6.427825
H -0.621468 0.724252 -5.740213