24

C 1.743614 0.908949 1.650041
Si 1.669188 0.021850 0.007632
O 0.179184 -0.821123 -0.080006
C -1.036640 -0.299164 -0.047266
C -1.487055 0.965350 0.043912
C -2.992262 0.927101 -0.069764
C -3.253093 -0.578078 0.123970
O -2.008216 -1.240479 -0.135783
C 1.784416 1.186586 -1.449001
C 2.936215 -1.338524 -0.098587
H 1.622962 0.190404 2.474326
H 2.722014 1.399841 1.765059
H 0.963024 1.676467 1.744018
H -0.871771 1.859728 0.086352
H -3.514403 1.517901 0.696172
H -3.343074 1.284961 -1.052890
H -3.540668 -0.797163 1.164534
H -4.010817 -0.994004 -0.550437
H 2.779307 1.657098 -1.467940
H 1.651099 0.633830 -2.390685
H 1.030635 1.984947 -1.406790
H 2.805989 -2.057236 0.723315
H 2.845611 -1.880679 -1.051096
H 3.952549 -0.922495 -0.034304