46

C -1.273277 4.814686 1.043576
C -1.673284 3.651350 0.204884
O -1.177248 2.439094 0.550036
C -2.471154 3.518578 -0.892841
C -2.453283 2.119190 -1.227422
C -1.650357 1.485639 -0.316117
B -1.184486 -0.061248 -0.096307
C 0.459124 -0.117115 -0.047550
C 1.232857 0.423300 -1.089793
C 2.623351 0.357685 -1.090909
C 3.282375 -0.251015 -0.017627
C 4.779722 -0.276256 -0.001118
F 5.304558 0.918639 0.313519
F 5.266535 -1.151180 0.885976
F 5.291378 -0.601192 -1.196048
C 2.548167 -0.790269 1.038128
C 1.154054 -0.720753 1.009982
O -1.729826 -0.678872 1.136621
C -2.765356 -1.565845 0.776603
C -2.851820 -2.689374 1.803640
C -4.097177 -0.806811 0.741193
C -2.330386 -2.034456 -0.653480
C -1.267122 -3.137499 -0.583429
C -3.482775 -2.498526 -1.537198
O -1.757952 -0.867871 -1.201883
H -1.592752 4.681888 2.088417
H -0.180757 4.946964 1.046422
H -1.732711 5.731338 0.654530
H -3.000886 4.325209 -1.394927
H -2.975778 1.626923 -2.044579
H 0.725275 0.912536 -1.927163
H 3.202026 0.775010 -1.918412
H 3.066923 -1.267545 1.871512
H 0.572919 -1.154243 1.827955
H -3.188122 -2.282896 2.769429
H -3.571572 -3.460790 1.488543
H -1.872370 -3.161678 1.954613
H -4.074165 -0.033630 -0.039363
H -4.951803 -1.475978 0.561345
H -4.241140 -0.311213 1.713060
H -1.687174 -4.100867 -0.257757
H -0.832499 -3.267567 -1.585860
H -0.460011 -2.849634 0.105487
H -4.191465 -1.680803 -1.722921
H -3.091599 -2.839181 -2.507776
H -4.023898 -3.337854 -1.073356