15

C 0.000000 2.372252 0.408677
C 0.000000 1.172205 -0.513086
O 0.000000 0.000000 0.260791
C 0.000000 -1.172205 -0.513086
C 0.000000 -2.372252 0.408677
H -0.891043 2.359224 1.051607
H 0.891043 2.359224 1.051607
H 0.000000 3.304385 -0.171806
H -0.888798 1.190299 -1.174058
H 0.888798 1.190299 -1.174058
H -0.888798 -1.190299 -1.174058
H 0.888798 -1.190299 -1.174058
H 0.891043 -2.359224 1.051607
H -0.891043 -2.359224 1.051607
H 0.000000 -3.304385 -0.171806