23

C -3.704592 -0.088755 1.376759
S -2.578892 -0.447321 0.001336
C -3.701404 -0.096946 -1.378870
C -1.389167 0.758609 -0.000568
C -0.009397 0.438551 -0.000096
C 0.947514 1.499768 -0.002103
C 2.305692 1.261223 -0.001978
C 2.806847 -0.057077 0.000227
C 1.883737 -1.122168 0.002318
C 0.524012 -0.886536 0.002138
C 4.213498 -0.307744 0.000254
N 5.354608 -0.512433 0.000256
H -4.552935 -0.782087 1.325865
H -3.131221 -0.249682 2.295994
H -4.038949 0.953532 1.303344
H -4.035755 0.945816 -1.312593
H -3.125873 -0.263575 -2.295743
H -4.549925 -0.789908 -1.325814
H -1.729198 1.795421 -0.002952
H 0.585639 2.529782 -0.003837
H 3.002253 2.101560 -0.003607
H 2.251121 -2.150060 0.004021
H -0.155585 -1.740182 0.003668