40

C 2.445742 -1.510361 -1.424394
C 0.926343 -1.387269 -1.255837
C 0.301044 -2.748414 -0.935895
Si 0.425706 -0.031473 -0.031192
C 1.006664 -0.404707 1.739154
C 2.492373 -0.050293 1.906621
C 0.188192 0.264064 2.851231
C 1.065910 1.644853 -0.643538
C 0.964090 1.843467 -2.161675
C 0.490833 2.839933 0.126636
N -1.377948 -0.025372 0.000425
C -2.152769 -0.925082 0.700182
C -3.479316 -0.727428 0.387407
C -3.525984 0.341893 -0.553394
C -2.225612 0.741093 -0.768987
H 2.933926 -0.540005 -1.606582
H 2.904922 -1.951395 -0.525734
H 2.691900 -2.171338 -2.270248
H 0.500899 -1.040437 -2.215749
H 0.650055 -3.129646 0.037815
H -0.796862 -2.700339 -0.905307
H 0.584166 -3.493455 -1.696431
H 0.905973 -1.499741 1.853354
H 2.636424 1.041442 1.876531
H 2.865323 -0.401151 2.881548
H 3.131128 -0.491086 1.127894
H 0.274119 1.360174 2.804946
H -0.880055 0.015356 2.802839
H 0.564061 -0.049217 3.838284
H 2.144660 1.591426 -0.404248
H -0.078364 1.868067 -2.512763
H 1.427189 2.799515 -2.452742
H 1.477625 1.044522 -2.715943
H 0.695574 2.769112 1.204508
H 0.934386 3.781464 -0.234054
H -0.599932 2.918157 0.003551
H -1.696267 -1.649083 1.373171
H -4.320264 -1.284229 0.793740
H -4.410330 0.774353 -1.015087
H -1.839556 1.525266 -1.414655