12

O -3.224464 0.000000 -0.000546
C -1.964264 0.000000 0.000765
C -1.173655 1.209887 0.000138
C 0.214025 1.208321 0.000032
C 0.915169 0.000000 0.000107
Cl 2.676506 0.000000 -0.000128
C 0.214025 -1.208321 0.000027
C -1.173655 -1.209887 0.000133
H -1.716691 2.158952 -0.000139
H 0.769311 2.149418 -0.000182
H 0.769311 -2.149418 -0.000191
H -1.716691 -2.158952 -0.000149