17

C -2.530129 -0.046189 -0.242560
C -1.239974 -0.669499 0.275217
C 0.014694 0.034099 -0.233284
N 0.022551 1.434122 0.179586
C 1.271915 -0.708694 0.201925
O 2.385799 -0.011336 -0.309916
H -3.413752 -0.559767 0.160834
H -2.583064 1.013701 0.038742
H -2.576249 -0.102994 -1.340686
H -1.228599 -0.647070 1.379676
H -1.191471 -1.732194 -0.011618
H -0.000352 0.017354 -1.338939
H 0.929479 1.826636 -0.074421
H -0.005601 1.468538 1.201089
H 1.297317 -0.748821 1.308208
H 1.240566 -1.749398 -0.170538
H 3.188435 -0.392451 0.062091