15

C 0.000000 3.120681 0.000000
C -0.957661 1.926834 0.000000
Hg 0.000000 0.000000 0.000000
C 0.957661 -1.926834 0.000000
C 0.000000 -3.120681 0.000000
H 0.657041 3.117218 0.883562
H 0.657041 3.117218 -0.883562
H -0.532677 4.087982 0.000000
H -1.621366 1.979523 0.879126
H -1.621366 1.979523 -0.879126
H 1.621366 -1.979523 -0.879126
H 1.621366 -1.979523 0.879126
H -0.657041 -3.117218 0.883562
H -0.657041 -3.117218 -0.883562
H 0.532677 -4.087982 0.000000