23

C -1.700958 -4.032843 0.000000
C -0.480330 -3.119316 0.000000
C -0.845336 -1.637868 0.000000
C 0.367497 -0.713155 0.000000
C 0.000000 0.768503 0.000000
C 1.220322 1.694583 0.000000
Si 0.783095 3.525330 0.000000
H -0.024447 3.867658 1.204705
H 2.006303 4.373739 0.000000
H -0.024447 3.867658 -1.204705
H -2.325844 -3.851778 -0.887693
H -1.414742 -5.094077 0.000000
H -2.325844 -3.851778 0.887693
H 0.146974 -3.336173 0.880974
H 0.146974 -3.336173 -0.880974
H -1.472078 -1.416477 -0.881944
H -1.472078 -1.416477 0.881944
H 0.994497 -0.931365 0.882209
H 0.994497 -0.931365 -0.882209
H -0.630168 0.982507 -0.880905
H -0.630168 0.982507 0.880905
H 1.850040 1.488771 0.881782
H 1.850040 1.488771 -0.881782