17

N -2.818953 -0.000002 0.010562
C -1.450664 0.000000 0.003348
C -0.720643 1.204740 -0.002878
C 0.671050 1.193715 -0.010775
C 1.403007 0.000003 -0.011685
C 2.910639 -0.000001 0.014795
C 0.671051 -1.193712 -0.010792
C -0.720640 -1.204740 -0.002866
H -3.336687 0.865483 0.011302
H -3.336688 -0.865487 0.010894
H -1.259145 2.154997 -0.005458
H 1.205239 2.147656 -0.018698
H 3.295467 -0.000199 1.047165
H 3.317797 -0.889822 -0.485112
H 3.317791 0.890011 -0.484773
H 1.205242 -2.147653 -0.018724
H -1.259140 -2.154999 -0.005406