21

N 1.281501 0.003797 0.001934
C 0.795484 -0.570026 1.256248
C -0.758642 -0.598032 1.309269
C -1.287841 -0.003475 -0.002400
C -0.753394 -0.839243 -1.172523
C 0.800120 -0.798674 -1.121562
C -0.761903 1.430953 -0.140384
C 0.792099 1.375355 -0.130673
H 1.210621 -1.584859 1.350284
H 1.206730 0.025111 2.085516
H -1.131071 -1.626649 1.430504
H -1.135344 -0.014091 2.162854
H -2.387368 -0.006739 -0.004529
H -1.124246 -1.872465 -1.092861
H -1.128349 -0.432201 -2.123914
H 1.213267 -0.371110 -2.047633
H 1.216927 -1.812109 -1.019702
H -1.135365 1.877145 -1.074672
H -1.140184 2.048600 0.688317
H 1.201580 1.964932 0.703366
H 1.206765 1.796718 -1.058921