19

C 2.347368 0.000000 -0.363795
C 1.108020 0.000000 0.135166
C 0.337977 1.265867 0.420827
C -1.013254 1.260747 -0.306836
C -1.811836 0.000000 0.023621
C -1.013254 -1.260747 -0.306836
C 0.337977 -1.265867 0.420827
H 2.874090 0.934788 -0.573075
H 2.874090 -0.934788 -0.573075
H 0.147905 1.324110 1.507986
H 0.932474 2.148788 0.144689
H -1.586728 2.162003 -0.042935
H -0.833056 1.300384 -1.394487
H -2.059786 0.000000 1.099632
H -2.767555 0.000000 -0.521824
H -1.586728 -2.162003 -0.042935
H -0.833056 -1.300384 -1.394487
H 0.932474 -2.148788 0.144689
H 0.147905 -1.324110 1.507987