29

C 0.000000 2.856555 0.321807
C 0.000000 1.539126 1.102367
Si 0.000000 0.000000 0.000000
C -1.539126 0.000000 -1.102367
C -2.856555 0.000000 -0.321807
C 1.539126 0.000000 -1.102367
C 2.856555 0.000000 -0.321807
C 0.000000 -1.539126 1.102367
C 0.000000 -2.856555 0.321807
H 0.000000 3.733455 0.986123
H 0.885809 2.935746 -0.327472
H -0.885808 2.935746 -0.327473
H 0.878628 1.488582 1.767952
H -0.878630 1.488582 1.767951
H -1.488582 0.878628 -1.767952
H -1.488582 -0.878630 -1.767951
H -3.733455 0.000000 -0.986123
H -2.935746 -0.885808 0.327473
H -2.935746 0.885809 0.327472
H 1.488582 -0.878628 -1.767952
H 1.488582 0.878630 -1.767951
H 2.935746 0.885808 0.327473
H 2.935746 -0.885809 0.327472
H 3.733455 0.000000 -0.986123
H 0.878630 -1.488582 1.767951
H -0.878628 -1.488582 1.767952
H 0.885808 -2.935746 -0.327473
H 0.000000 -3.733455 0.986123
H -0.885809 -2.935746 -0.327472