19

C -2.926941 -1.082091 0.006700
C -1.640102 -0.298466 -0.007077
C -0.408632 -0.946547 -0.007176
C 0.794324 -0.222601 -0.001522
O 1.928010 -0.959527 -0.002430
C 3.164232 -0.286377 0.003816
C 0.765219 1.174789 0.003059
C -0.474034 1.823884 0.001258
C -1.663560 1.106728 -0.004305
H -3.429773 -0.984146 0.980785
H -3.623178 -0.708299 -0.757387
H -2.748132 -2.149122 -0.177014
H -0.348605 -2.036655 -0.012490
H 3.281359 0.346974 -0.890244
H 3.275820 0.340007 0.903490
H 3.942257 -1.057202 0.003232
H 1.682374 1.761800 0.005768
H -0.498338 2.915167 0.002451
H -2.620901 1.631768 -0.007667