12

N -0.037991 1.619250 -0.473624
C -0.231765 0.175535 -0.490805
C 0.761974 -0.584400 0.411517
S 2.524837 -0.229892 0.066048
C -1.665195 -0.196088 -0.031690
O -2.229584 0.605926 0.748633
O -2.105652 -1.298734 -0.421724
H -0.545189 1.939593 0.353841
H 0.959590 1.764669 -0.291614
H -0.096566 -0.212970 -1.517032
H 0.504872 -0.315282 1.455254
H 0.537637 -1.660311 0.308752