11

Cl 2.235461 0.000000 -0.000027
C 0.502168 0.000000 -0.000006
C -0.195155 1.204687 -0.000030
C -1.588382 1.140675 0.000029
N -2.276797 0.000000 0.000031
C -1.588382 -1.140675 0.000003
C -0.195155 -1.204687 0.000033
H 0.330471 2.158908 -0.000073
H -2.168380 2.068318 -0.000018
H -2.168380 -2.068318 0.000088
H 0.330471 -2.158908 0.000070