22

C -2.153142 1.177736 -0.375407
C -2.586462 -0.146346 0.221248
S -1.361103 -1.449153 -0.113293
C 0.215539 -0.612044 0.055608
N 1.197320 -1.422964 0.130004
C 2.554503 -0.906403 0.153329
C 2.667207 0.497133 -0.425841
C 1.587135 1.368864 0.189730
N 0.275584 0.762247 -0.013096
C -0.850725 1.650044 0.243191
H -2.034049 1.079011 -1.465126
H -2.925449 1.938115 -0.186644
H -2.739542 -0.054187 1.306176
H -3.521300 -0.510751 -0.224668
H 2.919972 -0.912368 1.195757
H 3.203401 -1.604093 -0.398054
H 3.659327 0.928994 -0.234665
H 2.520549 0.463935 -1.516649
H 1.781156 1.517890 1.269184
H 1.570284 2.363666 -0.278744
H -0.581050 2.630014 -0.175769
H -0.990299 1.797336 1.332377