15

O -2.958533 -1.568442 0.007766
C -2.113073 -0.636342 -0.002309
C -2.474137 0.763255 0.016661
C -1.537153 1.784804 0.003259
C -0.160997 1.520385 -0.029064
C 0.229208 0.176244 -0.047392
C 1.691591 -0.154172 -0.003368
F 2.134588 -0.315804 1.256294
F 1.985911 -1.291347 -0.647813
F 2.454569 0.805725 -0.544248
C -0.688219 -0.866719 -0.036427
H -3.543041 0.994157 0.040994
H -1.880578 2.823174 0.015411
H 0.576671 2.321733 -0.046209
H -0.343728 -1.903426 -0.058582