15

O -3.812005 -0.000001 0.034347
C -2.557470 0.000000 0.010249
C -1.768336 1.215111 -0.008262
C -0.387301 1.207868 -0.033355
C 0.331474 0.000001 -0.048099
C 1.812293 0.000000 -0.001285
F 2.317714 -0.000007 1.254188
F 2.349924 -1.079802 -0.595438
F 2.349924 1.079808 -0.595427
C -0.387300 -1.207867 -0.033355
C -1.768336 -1.215111 -0.008262
H -2.315901 2.161160 -0.005250
H 0.159821 2.154631 -0.049984
H 0.159822 -2.154630 -0.049984
H -2.315899 -2.161161 -0.005250