15

N 0.000000 2.452530 0.361861
C -0.022891 1.270383 -0.492374
C 0.000000 0.000000 0.344829
C 0.022891 -1.270383 -0.492374
N 0.000000 -2.452530 0.361861
H -0.021907 3.292538 -0.214406
H -0.860850 2.481838 0.908773
H -0.896185 1.230842 -1.174120
H 0.870770 1.291029 -1.137755
H 0.884312 0.027869 1.004234
H -0.884312 -0.027869 1.004234
H -0.870770 -1.291029 -1.137755
H 0.896185 -1.230842 -1.174120
H 0.021907 -3.292538 -0.214406
H 0.860850 -2.481838 0.908773