19

N 2.606357 -0.290010 -0.069489
C 1.516013 0.558245 0.383695
C 0.289009 0.328939 -0.489387
H 0.592000 0.500801 -1.533739
N -0.174338 -1.067973 -0.356199
C -1.399062 -1.022256 0.446133
C -2.090345 0.282948 0.044350
C -0.900526 1.240618 -0.085749
H 3.369177 -0.270936 0.604992
H 2.249927 -1.246775 -0.063448
H 1.216305 0.381260 1.438097
H 1.810758 1.618737 0.312775
H -0.412699 -1.424337 -1.278751
H -2.006188 -1.922464 0.279355
H -1.138288 -0.993148 1.518016
H -2.584966 0.147976 -0.930623
H -2.846334 0.623859 0.765307
H -0.691185 1.715056 0.886696
H -1.073172 2.044889 -0.813119