25

C 2.442083 1.372495 0.445694
C 2.260908 -0.056317 -0.004466
C 3.557608 -0.765437 -0.307167
C 1.105309 -0.731326 -0.171601
N -0.228570 -0.332817 -0.124482
C -0.631436 1.052867 0.003311
C -2.059802 1.212195 -0.499932
O -2.940416 0.344706 0.175020
C -2.571461 -1.000538 -0.023765
C -1.164255 -1.261160 0.487915
H 2.699164 2.034983 -0.398824
H 1.570071 1.790945 0.956353
H 3.289284 1.423649 1.147557
H 4.224656 -0.761013 0.570989
H 3.396029 -1.807784 -0.614642
H 4.105810 -0.255999 -1.118197
H 1.190071 -1.792543 -0.436910
H -0.585756 1.404152 1.054476
H 0.035626 1.682350 -0.600445
H -2.412416 2.237797 -0.327830
H -2.085938 1.005221 -1.587055
H -3.298228 -1.624461 0.513035
H -2.617816 -1.247491 -1.101860
H -0.865447 -2.290670 0.241519
H -1.155517 -1.163748 1.593105