22

O 0.851473 3.073103 -0.620757
S -0.033611 1.875940 -0.369379
C 1.220107 0.578782 0.060452
C 0.989630 -0.784228 -0.138174
C 1.937590 -1.737455 0.226041
C 3.140386 -1.322173 0.800042
C 3.385601 0.036580 0.995653
C 2.424605 0.980867 0.628520
S -0.502886 -1.429572 -0.954165
O -0.474921 -2.880535 -0.665089
O -1.520141 -0.724652 0.258808
C -2.762841 -0.524400 -0.164174
O -3.422769 0.109454 0.757217
C -2.794825 0.541596 1.983308
O -0.587818 1.264262 -1.648137
H 1.725622 -2.793816 0.055985
H 3.886779 -2.063540 1.088295
H 4.331234 0.363319 1.431989
H 2.592676 2.052133 0.758247
H -3.559912 1.104629 2.524584
H -2.470155 -0.328238 2.566205
H -1.930425 1.173152 1.745062