26

C -1.867121 1.682829 -0.138220
Si -1.756853 -0.141956 0.319078
H -1.715362 -0.248575 1.811197
C -3.292060 -1.038023 -0.300535
C -0.203823 -0.942346 -0.376735
Si 1.443253 -0.088388 -0.027843
C 1.494052 0.530686 1.753142
C 2.851967 -1.312492 -0.293156
C 1.674844 1.362855 -1.209692
H -2.828321 2.102497 0.194409
H -1.062681 2.269206 0.330342
H -1.796208 1.814397 -1.229061
H -3.360356 -0.963398 -1.396722
H -3.260120 -2.104691 -0.033489
H -4.206343 -0.602932 0.129847
H -0.155378 -1.969667 0.025043
H -0.317759 -1.038291 -1.471024
H 1.345328 -0.297596 2.462817
H 2.467544 0.996065 1.971326
H 0.710712 1.281070 1.942098
H 2.837748 -1.706563 -1.320816
H 3.827876 -0.831606 -0.125208
H 2.766763 -2.163649 0.399550
H 0.889800 2.123037 -1.086159
H 2.647803 1.847740 -1.035608
H 1.652194 1.016704 -2.254662