10

O -2.285474 -0.618057 0.000207
C -1.135954 -0.208772 0.000364
C -0.646984 1.239534 -0.000034
N 0.793923 1.208064 -0.000179
C 1.176127 -0.049415 -0.000137
O 2.302781 -0.560282 -0.000132
N 0.007374 -0.925432 -0.000020
H -1.083760 1.748411 -0.881159
H -1.083577 1.748727 0.880994
H 0.060663 -1.936928 -0.000198