22

C 1.533612 -1.071346 -1.547459
Si 1.541534 -0.026241 0.000239
O 0.134841 0.963255 -0.003569
C -1.124073 0.562345 -0.001891
C -2.298990 1.257188 -0.000943
C -3.332291 0.255984 0.000700
C -2.708777 -0.949792 0.000615
O -1.355218 -0.766944 -0.001046
C 1.532129 -1.060868 1.554976
C 2.926415 1.219299 -0.003256
H 1.482129 -0.436000 -2.443936
H 2.456005 -1.669126 -1.603510
H 0.674871 -1.757138 -1.553597
H -2.401167 2.337085 -0.001303
H -4.406336 0.421354 0.001793
H -3.053000 -1.978334 0.001500
H 2.453948 -1.659151 1.615103
H 1.481097 -0.419559 2.447215
H 0.672800 -1.745884 1.565541
H 2.878544 1.856165 -0.898423
H 2.875022 1.864704 0.885575
H 3.899478 0.705914 0.001173