18

F -0.081260 -2.840394 0.000000
C -0.691704 -1.599530 0.000000
S -0.043890 -0.726588 1.422114
C 0.000414 0.906473 0.692738
C 0.000414 0.906473 -0.692738
C 0.017577 2.093375 -1.415133
C 0.072609 3.290511 -0.699933
C 0.072609 3.290511 0.699933
C 0.017577 2.093375 1.415133
S -0.043890 -0.726588 -1.422114
O 1.313705 -1.176727 -1.756510
O -0.999641 -0.680140 -2.533196
O -0.999641 -0.680140 2.533196
O 1.313705 -1.176727 1.756510
H -0.016140 2.080409 -2.505464
H 0.103055 4.238141 -1.238938
H 0.103055 4.238141 1.238938
H -0.016140 2.080409 2.505464