31

Cl 4.867307 -2.261739 -0.035429
C 3.713929 -0.956823 -0.001484
C 3.854478 0.102260 -0.895111
C 2.931742 1.144890 -0.862508
C 1.877270 1.141842 0.057731
C 1.752084 0.058845 0.938327
C 2.665664 -0.989538 0.917310
C 0.932305 2.287429 0.135016
C 1.312390 3.558212 -0.053628
N -0.390868 1.991851 0.533192
C -1.132603 0.980789 -0.000996
O -0.779819 0.209466 -0.852568
O -2.356236 0.973755 0.588967
C -3.273822 0.001027 0.233992
C -2.962691 -1.354388 0.326964
C -3.944257 -2.292791 0.014293
C -5.219517 -1.881153 -0.378032
C -5.514739 -0.520428 -0.459974
C -4.539003 0.428957 -0.157068
H 4.673926 0.102816 -1.613767
H 3.024882 1.964348 -1.576941
H 0.934930 0.042387 1.661793
H 2.572249 -1.826901 1.608904
H 0.590678 4.374074 0.008350
H 2.358895 3.801031 -0.234771
H -0.884062 2.664010 1.111042
H -1.964765 -1.664268 0.636469
H -3.709749 -3.356062 0.082197
H -5.983178 -2.622316 -0.616774
H -6.509671 -0.191600 -0.763302
H -4.743218 1.498541 -0.213438