30

O -0.705589 1.059227 2.157145
S -0.685471 1.189531 0.692043
C 0.844356 0.795268 0.025792
O 1.191034 1.457695 -1.132402
C 1.947530 2.626792 -0.910589
C 1.484341 -0.405525 0.419042
O 2.653835 -0.610706 -0.261240
C 3.371724 -1.785426 0.079773
C 4.650740 -1.797005 -0.727829
O 1.102159 -1.214298 1.262066
C -1.895199 -0.001132 0.100473
C -2.130121 -1.170433 0.823060
C -3.027828 -2.110383 0.315273
C -3.679335 -1.876493 -0.897345
C -3.435742 -0.700013 -1.609997
C -2.539297 0.244438 -1.112543
O -1.089791 2.484973 0.112624
H 2.897487 2.388856 -0.403302
H 2.163286 3.078132 -1.889326
H 1.379706 3.343640 -0.296911
H 3.580208 -1.793964 1.160975
H 2.756377 -2.674453 -0.132021
H 5.258014 -0.910071 -0.498819
H 5.240992 -2.693084 -0.493148
H 4.429547 -1.796795 -1.804189
H -1.604446 -1.326896 1.764782
H -3.223927 -3.028846 0.871071
H -4.383162 -2.613160 -1.288155
H -3.950357 -0.516138 -2.554517
H -2.336389 1.174623 -1.645339