43

O -1.801517 -1.457814 1.936460
C -1.168673 -1.538305 0.862149
C 0.219320 -1.221339 0.751584
C 0.896580 -1.106152 -0.500605
O 2.240313 -0.848404 -0.327644
C 2.986501 -0.574433 -1.497599
C 4.388351 -0.190803 -1.076329
O 0.467754 -1.158536 -1.654756
C 0.960349 -0.850260 2.019657
C 1.395198 0.623876 2.172655
C 0.330345 1.651126 1.751537
C 0.578360 2.247197 0.358813
C -0.568505 3.112630 -0.197426
C -1.497282 2.352795 -1.152838
C -2.081519 1.105058 -0.505701
C -2.824108 0.138983 -1.418962
C -3.182242 -1.167837 -0.703025
C -1.980685 -2.053723 -0.334888
H 2.993707 -1.457519 -2.156809
H 2.503252 0.237037 -2.065381
H 5.008570 0.022061 -1.957699
H 4.367946 0.706346 -0.441105
H 4.859260 -1.005232 -0.507948
H 0.281923 -1.095387 2.849161
H 1.861663 -1.475845 2.145866
H 1.679307 0.786960 3.225788
H 2.308311 0.798365 1.581120
H -0.660577 1.171577 1.788197
H 0.294690 2.485823 2.472229
H 1.504141 2.844292 0.413013
H 0.793700 1.431850 -0.353499
H -1.159590 3.516374 0.643900
H -0.156211 3.986409 -0.725644
H -2.295280 3.021852 -1.518528
H -0.913108 2.050020 -2.040671
H -1.244672 0.553269 -0.067610
H -2.735759 1.394074 0.337761
H -3.740903 0.609517 -1.815660
H -2.183686 -0.094890 -2.286686
H -3.736342 -0.941246 0.223783
H -3.863196 -1.753257 -1.341623
H -1.353142 -2.222512 -1.214534
H -2.378358 -3.024783 0.005977