17

F 1.915646 -1.026239 -0.365204
C 1.177208 0.019106 0.030696
C -0.105526 0.121925 -0.771097
N -0.921340 -1.074001 -0.656115
C -1.900308 -0.861556 0.405737
C -2.319362 0.582390 0.145253
C -0.997560 1.268911 -0.237529
F 0.948731 -0.146083 1.340332
F 1.933990 1.112313 -0.103216
H 0.217215 0.287852 -1.811882
H -0.380827 -1.931655 -0.576766
H -2.733058 -1.572577 0.311894
H -1.477481 -0.962676 1.422946
H -3.018048 0.610377 -0.702557
H -2.805992 1.052983 1.008776
H -0.532369 1.733344 0.643482
H -1.132083 2.055794 -0.988661