48

C 0.690265 5.287223 1.409118
C 0.508495 3.856276 1.902019
C 0.324166 2.852125 0.765419
C 0.137037 1.410963 1.242660
Sn -0.094463 0.032248 -0.414935
C -0.217289 -1.980741 0.379034
C -1.087904 -2.980700 0.005931
C -0.897994 -4.208401 0.714271
C 0.120284 -4.131359 1.625239
S 0.836800 -2.567697 1.615695
C -1.962024 0.376859 -1.454541
C -3.159947 0.416761 -0.504035
C -4.491284 0.655320 -1.215000
C -5.678318 0.686963 -0.259224
C 1.688087 0.133176 -1.644045
C 2.958591 0.019942 -0.799698
C 4.244535 0.028346 -1.625622
C 5.501853 -0.064157 -0.768753
H 1.574056 5.369058 0.758149
H -0.183290 5.615119 0.825145
H 0.820430 5.991204 2.242930
H 1.379946 3.553314 2.506589
H -0.364510 3.798407 2.573705
H -0.544287 3.162432 0.155847
H 1.198325 2.914793 0.091507
H 1.002977 1.089176 1.844871
H -0.746311 1.331132 1.896729
H -1.853189 -2.846654 -0.761442
H -1.492577 -5.107470 0.552802
H 0.481325 -4.907093 2.297858
H -1.878589 1.326345 -2.007916
H -2.094398 -0.414062 -2.210830
H -3.222918 -0.528856 0.063925
H -3.014357 1.209229 0.252029
H -4.432204 1.604883 -1.773134
H -4.638396 -0.134477 -1.970842
H -6.623878 0.864173 -0.790735
H -5.770425 -0.266209 0.283313
H -5.558224 1.484341 0.489952
H 1.642793 -0.682169 -2.383865
H 1.685410 1.077425 -2.212297
H 3.000637 0.850113 -0.071200
H 2.930926 -0.906564 -0.196706
H 4.213931 -0.811083 -2.340224
H 4.270670 0.947946 -2.234214
H 5.564157 0.783844 -0.069855
H 5.501737 -0.987709 -0.170017
H 6.413300 -0.061394 -1.383056