30

C -1.559653 2.104474 -0.000052
C -1.933056 0.817615 -0.000004
Si -0.656889 -0.585882 0.000006
C -0.949237 -1.659920 -1.532201
Si 1.560737 0.198173 -0.000006
C 1.936668 1.215323 1.549892
C 2.684671 -1.325318 0.000029
C 1.936680 1.215257 -1.549944
C -0.949223 -1.659894 1.532233
C -3.392825 0.433030 0.000042
H -2.296589 2.917028 -0.000064
H -0.508132 2.407646 -0.000085
H -0.822067 -1.075401 -2.455714
H -0.236007 -2.498051 -1.555671
H -1.965931 -2.082644 -1.529606
H 1.724734 0.628966 2.456939
H 3.000686 1.499351 1.568290
H 1.336456 2.135776 1.594146
H 2.507635 -1.946813 -0.890870
H 3.743374 -1.021758 0.000036
H 2.507615 -1.946789 0.890942
H 1.336460 2.135703 -1.594250
H 3.000696 1.499295 -1.568342
H 1.724764 0.628857 -2.456969
H -1.965921 -2.082609 1.529658
H -0.235999 -2.498030 1.555699
H -0.822033 -1.075366 2.455738
H -4.048466 1.316699 0.000016
H -3.639668 -0.178708 -0.882420
H -3.639634 -0.178631 0.882567