13

C 0.000000 1.769893 -0.581624
O 0.769442 0.868393 0.179177
C 0.000000 0.000000 0.946297
O -0.769442 -0.868393 0.179177
C 0.000000 -1.769893 -0.581624
H -0.629613 2.401441 0.070081
H 0.691690 2.411374 -1.140181
H -0.654888 1.239246 -1.290431
H 0.712419 -0.559100 1.577965
H -0.712419 0.559100 1.577965
H 0.629613 -2.401441 0.070081
H -0.691690 -2.411374 -1.140181
H 0.654888 -1.239246 -1.290431