42

O 2.712229 0.607612 1.543318
C 1.897675 0.203024 2.395538
C 2.385537 -0.012724 3.818833
C 0.544672 -0.085444 2.111903
P 0.007927 -0.016362 0.471371
C -0.149856 1.640500 -0.282962
C -1.269112 1.980202 -1.052342
C -1.358654 3.248914 -1.626710
C -0.336567 4.177120 -1.433347
C 0.780467 3.838028 -0.666611
C 0.880660 2.572632 -0.091374
C 1.049914 -0.975463 -0.672662
C 1.133907 -0.645871 -2.029289
C 1.888771 -1.443173 -2.890275
C 2.559854 -2.562083 -2.397001
C 2.479151 -2.887122 -1.041426
C 1.725371 -2.095745 -0.177532
C -1.658765 -0.736881 0.410154
C -1.990379 -1.756520 -0.486748
C -3.288009 -2.271307 -0.502296
C -4.251868 -1.769000 0.370422
C -3.922168 -0.748620 1.265248
C -2.629668 -0.231537 1.286998
H 2.804295 0.930833 4.197747
H 1.598662 -0.362054 4.497933
H 3.204694 -0.746376 3.801442
H -0.157949 -0.454565 2.856833
H -2.074648 1.259256 -1.205160
H -2.232354 3.510950 -2.225050
H -0.410788 5.169437 -1.881095
H 1.580037 4.564972 -0.516588
H 1.754020 2.286637 0.498866
H 0.614599 0.233251 -2.417194
H 1.954109 -1.186225 -3.948315
H 3.153212 -3.182406 -3.070526
H 3.009098 -3.758933 -0.655181
H 1.660733 -2.335707 0.886260
H -1.240999 -2.154039 -1.173924
H -3.543149 -3.069051 -1.200968
H -5.265319 -2.172529 0.353860
H -4.674681 -0.352967 1.948547
H -2.375889 0.570463 1.984282