11

O -0.288677 -1.190136 -0.002754
C 1.025721 -0.607853 0.002858
C 0.840831 0.927424 -0.002518
C -0.666010 1.050598 0.001911
C -1.190416 -0.175214 0.000300
H 1.552955 -0.965479 0.898363
H 1.563735 -0.971793 -0.883468
H 1.300981 1.400086 0.878377
H 1.293960 1.393686 -0.890567
H -1.227884 1.981333 0.003487
H -2.235089 -0.486477 0.000532