17

H -2.403619 1.328175 -0.165350
C -2.575367 0.250360 -0.053309
H -3.603364 -0.114953 -0.022235
N -1.635658 -0.619907 0.033829
N -0.371451 -0.255784 -0.008938
C 0.686464 -1.237667 0.160541
C 1.920485 -0.456208 -0.282135
C 1.608709 0.967980 0.194786
C 0.102279 1.115606 -0.046851
H 0.774765 -1.561268 1.214695
H 0.483198 -2.125897 -0.453706
H 2.852800 -0.856283 0.136112
H 1.998029 -0.478433 -1.379690
H 1.818266 1.052289 1.271516
H 2.195146 1.737066 -0.323176
H -0.128974 1.584409 -1.022047
H -0.391907 1.724308 0.731454