22

C -1.941504 -1.490868 -0.428852
C -0.725287 -1.191113 0.436094
N 0.000148 -0.000330 0.010345
C -0.667443 1.223086 0.438270
C -0.323178 2.425514 -0.429394
C 1.393610 -0.033847 0.437820
C 2.263611 -0.932558 -0.429801
H -2.682636 -0.679610 -0.393999
H -1.634132 -1.624065 -1.475615
H -2.439987 -2.409905 -0.089663
H -1.024128 -1.108926 1.504750
H -0.039302 -2.048531 0.379286
H -1.753205 1.057331 0.386832
H -0.442020 1.441472 1.505682
H 0.750474 2.660832 -0.400809
H -0.597865 2.225320 -1.474634
H -0.867345 3.317382 -0.087877
H 1.792335 0.989599 0.386551
H 1.470286 -0.338553 1.505158
H 1.929539 -1.979614 -0.403311
H 2.231045 -0.592737 -1.474528
H 3.307051 -0.908965 -0.085060