23

H 0.486292 -0.692650 -1.820803
B 0.292686 -0.426571 -0.639905
O -0.038205 1.021168 -0.561825
C -0.698966 1.578982 0.425769
C -1.155234 2.978977 0.086933
O -0.950957 1.047266 1.487199
O -0.758735 -1.288693 -0.048664
C -2.030914 -1.121387 -0.309384
C -2.914421 -2.002828 0.541379
O -2.472657 -0.332656 -1.120905
O 1.477823 -0.734490 0.202261
C 2.681233 -0.328389 -0.133150
C 3.738535 -0.804531 0.836754
O 2.936929 0.350443 -1.104656
H -1.952809 2.901348 -0.666306
H -1.540598 3.482210 0.979492
H -0.332502 3.552337 -0.358500
H -2.540601 -3.034481 0.540516
H -2.868568 -1.632831 1.575928
H -3.948218 -1.965363 0.183382
H 3.737115 -1.902517 0.870104
H 4.723940 -0.438338 0.531897
H 3.497543 -0.446114 1.846720