15

O -2.848250 -0.000006 0.013323
C -1.583189 0.000001 0.005304
C -0.789413 1.204351 -0.003251
C 0.600378 1.192207 -0.012120
C 1.342323 0.000005 -0.013811
C 2.851231 -0.000003 0.017890
C 0.600380 -1.192203 -0.012122
C -0.789407 -1.204350 -0.003250
H -1.331627 2.155101 -0.007612
H 1.138518 2.147183 -0.020543
H 3.251850 -0.000513 1.046382
H 3.263288 -0.887894 -0.484693
H 3.263250 0.888402 -0.483810
H 1.138522 -2.147179 -0.020543
H -1.331620 -2.155100 -0.007607