64

C 1.456694 3.624740 -1.863959
Si 0.365662 2.607643 -0.731732
C 0.371272 3.336956 0.996937
C -1.383619 2.588959 -1.409105
O 0.974531 1.043594 -0.809918
C 1.369428 -0.102315 -0.092349
C 1.194897 0.145310 1.433113
H 1.573362 1.175128 1.569250
C 1.992553 -0.740399 2.401074
C 1.249169 -0.536011 3.722133
C -0.219720 -0.469832 3.302687
N -0.173857 0.047064 1.943907
C -1.300259 0.133273 1.191568
C -2.574835 -0.076064 1.608090
C -3.707931 -0.076801 0.676545
C -5.013115 0.153890 1.148824
C -6.104862 0.168087 0.283196
C -5.925239 -0.049506 -1.083863
C -4.638971 -0.299614 -1.568029
C -3.548583 -0.326730 -0.702299
C 0.575267 -1.289023 -0.663554
C 0.323505 -1.292504 -2.041798
C -0.391614 -2.329281 -2.638552
C -0.871989 -3.386395 -1.864654
C -0.623254 -3.395824 -0.493855
C 0.096755 -2.357713 0.101440
C 2.875017 -0.302398 -0.328740
C 3.706157 0.822737 -0.366043
C 5.086768 0.684609 -0.500314
C 5.657065 -0.584775 -0.602707
C 4.835333 -1.710842 -0.571059
C 3.453520 -1.571153 -0.434659
H 2.479324 3.717769 -1.469333
H 1.514349 3.163352 -2.861149
H 1.043614 4.638462 -1.978232
H -0.100635 4.330933 0.943174
H -0.204849 2.724447 1.706287
H 1.390594 3.470356 1.389049
H -1.437381 1.977659 -2.323283
H -2.108800 2.188849 -0.684470
H -1.692288 3.614254 -1.665369
H 1.971691 -1.795792 2.092772
H 3.044980 -0.434304 2.447157
H 1.439341 -1.329710 4.454608
H 1.551619 0.421299 4.171320
H -0.703674 -1.466507 3.302833
H -0.821106 0.181429 3.957057
H -1.127229 0.366020 0.140471
H -2.794040 -0.245477 2.664653
H -5.165137 0.334124 2.215704
H -7.104950 0.353505 0.680154
H -6.779059 -0.037665 -1.762763
H -4.483949 -0.495165 -2.631056
H -2.558912 -0.573881 -1.097952
H 0.686792 -0.460184 -2.645523
H -0.577773 -2.308262 -3.713629
H -1.438463 -4.195683 -2.327928
H -0.996144 -4.212137 0.126593
H 0.248136 -2.383682 1.179403
H 3.266827 1.818771 -0.293662
H 5.719049 1.573588 -0.526756
H 6.737084 -0.695338 -0.711103
H 5.269910 -2.708078 -0.657551
H 2.822750 -2.461576 -0.414889