51

H -0.025219 1.099113 -2.043406
C -0.015273 0.952395 -0.950733
C 1.283111 0.226750 -0.621072
C 1.709277 -0.830475 -1.434720
C 2.854650 -1.564573 -1.153944
C 3.644098 -1.271133 -0.015291
N 4.773887 -1.996006 0.278389
C 5.208375 -3.043366 -0.616699
C 5.579702 -1.633249 1.420749
C 3.219770 -0.198615 0.800136
C 2.067278 0.523902 0.496128
C -0.060275 2.344845 -0.333879
C 0.619875 3.394588 -0.964706
C 0.652341 4.668932 -0.402060
C 0.004469 4.915382 0.810315
C -0.677198 3.878824 1.446529
C -0.712297 2.604530 0.876098
C -1.248113 0.125047 -0.612410
C -2.451325 0.361254 -1.287288
C -3.618087 -0.329900 -0.983013
C -3.633669 -1.312323 0.036205
N -4.777735 -2.008279 0.342922
C -6.002845 -1.725826 -0.368337
C -4.756369 -2.988356 1.403565
C -2.419037 -1.549184 0.719360
C -1.262077 -0.845280 0.392614
H 1.120870 -1.093243 -2.318609
H 3.136992 -2.371770 -1.827777
H 5.432691 -2.659921 -1.627664
H 6.118843 -3.502901 -0.217418
H 4.446960 -3.834329 -0.721436
H 5.004371 -1.690659 2.359836
H 6.424322 -2.325812 1.500002
H 5.982328 -0.608317 1.337610
H 3.792044 0.083398 1.682453
H 1.781641 1.346916 1.155125
H 1.134663 3.204406 -1.910186
H 1.184239 5.474344 -0.911826
H 0.028892 5.912058 1.253783
H -1.188868 4.061165 2.393265
H -1.254459 1.800088 1.377880
H -2.480417 1.115586 -2.078996
H -4.522368 -0.104541 -1.545780
H -5.897488 -1.902647 -1.452182
H -6.795793 -2.382344 0.005212
H -6.330768 -0.680770 -0.230717
H -4.488688 -2.539347 2.375899
H -5.750205 -3.438313 1.499651
H -4.034247 -3.797341 1.200013
H -2.369739 -2.294312 1.511596
H -0.341947 -1.065522 0.939217