23

C -2.934174 1.557406 0.000012
N -2.756661 0.121520 0.000070
C -1.518722 -0.390682 0.000049
C -0.344238 0.305972 0.000035
C 0.901281 -0.444991 0.000079
O 1.976675 0.368474 0.000007
C 3.252079 -0.266085 -0.000010
C 4.307543 0.814852 -0.000077
O 1.017800 -1.655152 0.000073
C -3.935180 -0.721154 -0.000144
H -2.471782 2.009889 -0.891980
H -4.004300 1.792214 0.000212
H -2.471434 2.009978 0.891773
H -1.457800 -1.483554 0.000061
H -0.289216 1.392656 -0.000005
H 3.332673 -0.915822 0.884819
H 3.332624 -0.915884 -0.884797
H 4.211575 1.449890 -0.891468
H 4.211634 1.449945 0.891282
H 5.308988 0.364379 -0.000096
H -4.551320 -0.534474 -0.893138
H -3.630589 -1.774082 0.000052
H -4.551760 -0.534263 0.892496