13

C -2.069666 0.000003 0.019089
N -0.621220 0.000049 -0.027003
C 0.170432 -1.114559 -0.009722
C 1.490723 -0.711497 0.010723
C 1.490787 0.711405 0.011172
C 0.170543 1.114583 -0.009996
H -2.437208 -0.003229 1.055213
H -2.451021 0.892435 -0.491131
H -2.451309 -0.889049 -0.496826
H -0.271729 -2.108123 -0.017981
H 2.357139 -1.368264 0.014931
H 2.357259 1.368093 0.015688
H -0.271508 2.108193 -0.018472