26

O -0.261685 -1.799091 -0.212346
C -0.472342 -0.563411 -0.084928
C -1.934309 -0.134206 -0.040795
C -2.889069 -1.114591 0.261425
C -4.247186 -0.806165 0.325362
C -4.682364 0.495034 0.068946
C -3.745379 1.477876 -0.255574
C -2.386947 1.165965 -0.309922
C 0.489055 0.445047 0.053484
H 0.146492 1.467654 0.213389
C 1.921514 0.263533 0.040463
C 2.564541 -0.990363 -0.138556
C 3.953688 -1.096303 -0.145506
C 4.770507 0.024549 0.024204
C 4.159154 1.270532 0.203184
C 2.774238 1.385961 0.210737
H -2.529751 -2.128800 0.439956
H -4.971860 -1.585133 0.571557
H -5.745152 0.739904 0.111739
H -4.075225 2.495018 -0.476356
H -1.674077 1.943416 -0.587947
H 1.933300 -1.867017 -0.269264
H 4.410053 -2.079895 -0.286415
H 5.857643 -0.068365 0.017847
H 4.772827 2.164774 0.338052
H 2.318620 2.370425 0.351068