24

C 0.752426 0.000019 1.252947
C 1.343179 -0.000017 2.521519
C 0.577086 -0.000044 3.683607
C -0.817379 -0.000035 3.588978
C -1.427754 -0.000003 2.340900
C -0.643388 0.000024 1.183442
O -1.323899 0.000055 0.000000
C -0.643388 0.000024 -1.183442
C -1.427754 -0.000003 -2.340900
C -0.817379 -0.000035 -3.588978
C 0.577086 -0.000044 -3.683607
C 1.343179 -0.000017 -2.521519
C 0.752426 0.000019 -1.252947
C 1.593303 0.000059 0.000000
H 2.433932 -0.000023 2.586666
H 1.063443 -0.000071 4.659535
H -1.431574 -0.000055 4.490631
H -2.512655 0.000002 2.230316
H -2.512655 0.000002 -2.230316
H -1.431574 -0.000055 -4.490631
H 1.063443 -0.000071 -4.659535
H 2.433932 -0.000023 -2.586666
H 2.257482 0.879925 0.000000
H 2.257569 -0.879740 0.000000