27

O -0.209053 -2.220890 -0.870153
C -0.680224 -1.143883 -0.544473
C 0.024840 0.053967 -0.190089
C -0.692712 1.288783 -0.087690
O -2.070569 1.205973 -0.142517
C -2.678543 -0.030556 0.161994
C -2.604437 -0.314288 1.659399
C -4.107560 0.055166 -0.330674
O -2.057574 -1.065571 -0.570824
O -0.241734 2.417833 0.022544
C 1.494372 0.021553 -0.061129
C 2.310161 1.125279 -0.388468
C 3.696521 1.074953 -0.244028
C 4.325706 -0.076218 0.229204
C 3.536898 -1.180659 0.558158
C 2.152481 -1.132466 0.417699
H -3.117342 0.484791 2.210674
H -3.096921 -1.271408 1.875873
H -1.560489 -0.366339 1.994676
H -4.102756 0.259551 -1.409091
H -4.625352 -0.894203 -0.143520
H -4.633845 0.865156 0.190341
H 1.839127 2.034336 -0.755763
H 4.292343 1.950605 -0.512010
H 5.410691 -0.113055 0.340612
H 4.004497 -2.092284 0.937084
H 1.556458 -2.005701 0.679301