46

C -0.148502 -1.608884 -0.164613
C -1.526134 -1.771694 0.463164
N -2.323658 -0.587127 0.181949
C -1.691349 0.607269 -0.111223
N -0.446985 0.848559 -0.128700
C 0.457056 -0.248827 0.194267
H 0.644828 -0.242006 1.285644
C 1.799931 -0.014941 -0.519800
C 2.463983 1.311855 -0.180034
C 2.138072 2.071833 0.947988
C 2.829877 3.250389 1.236640
C 3.853841 3.691414 0.400931
C 4.182947 2.944659 -0.731994
C 3.493248 1.768164 -1.014233
C 2.762038 -1.163803 -0.265956
C 3.072604 -2.077112 -1.277382
C 3.929189 -3.152015 -1.031308
C 4.484194 -3.327348 0.235283
C 4.181917 -2.419285 1.252340
C 3.331274 -1.344573 1.001473
S -2.915259 1.853758 -0.485393
C -4.218616 0.706049 -0.202665
C -5.587176 0.924329 -0.292514
C -6.456812 -0.135638 -0.017686
C -5.952807 -1.385450 0.344136
C -4.576914 -1.609867 0.436953
C -3.708491 -0.556081 0.153495
H 0.499966 -2.426242 0.175598
H -0.232490 -1.683710 -1.261644
H -2.038398 -2.645085 0.036273
H -1.449562 -1.921535 1.552491
H 1.573448 0.000383 -1.598802
H 1.324177 1.761643 1.603730
H 2.559103 3.829989 2.121026
H 4.391113 4.613628 0.627688
H 4.979964 3.280383 -1.397659
H 3.760181 1.181592 -1.897621
H 2.635205 -1.946080 -2.270332
H 4.162174 -3.853826 -1.833887
H 5.154704 -4.165751 0.430401
H 4.617443 -2.545818 2.245090
H 3.114634 -0.625943 1.796482
H -5.972733 1.905379 -0.573062
H -7.533690 0.020835 -0.084546
H -6.639735 -2.204092 0.562522
H -4.191930 -2.586537 0.730585