14

C 1.500087 0.000001 0.000088
C 0.667628 -1.252231 -0.000074
C -0.667627 -1.252232 -0.000101
C -1.500087 -0.000001 0.000027
C -0.667628 1.252231 0.000004
C 0.667627 1.252232 0.000031
H 2.176844 -0.000036 0.873239
H 2.177088 0.000037 -0.872870
H 1.204661 -2.205057 -0.000171
H -1.204660 -2.205058 -0.000219
H -2.177053 0.000035 -0.872957
H -2.176878 -0.000037 0.873152
H -1.204661 2.205057 -0.000034
H 1.204659 2.205058 0.000015