23

C 4.262936 -0.242491 0.000154
C 2.770926 -0.202243 0.000013
C 1.862119 -1.235734 -0.000098
C 0.549489 -0.649946 -0.000056
C -0.754932 -1.167892 -0.000107
C -1.835645 -0.289525 -0.000052
O -3.072968 -0.859536 -0.000093
C -4.198789 -0.017997 -0.000035
C -1.631753 1.109292 0.000037
C -0.345540 1.640610 0.000076
C 0.736524 0.759332 0.000040
N 2.093201 0.993467 0.000036
H 4.672782 0.262595 -0.886972
H 4.672574 0.261106 0.888229
H 4.610099 -1.281937 -0.000658
H 2.111360 -2.293732 -0.000200
H -0.948028 -2.241584 -0.000185
H -4.226919 0.623305 -0.896308
H -5.079862 -0.669275 -0.000070
H -4.226909 0.623195 0.896317
H -2.480717 1.790557 0.000072
H -0.195002 2.721026 0.000137
H 2.529940 1.906337 0.000290