13

C 2.735323 -0.490952 0.000068
O 1.860736 0.614028 0.000048
C 0.543472 0.332377 0.000023
C -0.045223 -0.908735 0.000018
S -1.767017 -0.773685 -0.000108
C -1.694845 0.944941 0.000034
C -0.410585 1.403941 0.000023
H 2.583303 -1.113762 0.896837
H 2.583344 -1.113762 -0.896708
H 3.756011 -0.094635 0.000090
H 0.429027 -1.886185 0.000026
H -2.611360 1.531337 0.000057
H -0.122791 2.454314 0.000050