16

C -2.501095 0.620199 0.000063
C -1.130589 0.024756 -0.000014
C -0.714147 -1.291098 -0.000013
C 0.714147 -1.291098 -0.000028
C 1.130589 0.024756 -0.000011
C 2.501095 0.620199 0.000004
N 0.000000 0.802419 -0.000018
H -2.672720 1.247602 0.888071
H -2.672258 1.248833 -0.887160
H -3.252119 -0.179219 -0.000675
H -1.373325 -2.156523 -0.000011
H 1.373325 -2.156523 -0.000045
H 2.672370 1.248491 -0.887441
H 2.672607 1.247944 0.887791
H 3.252119 -0.179219 -0.000339
H 0.000000 1.815387 -0.000066