18

C -2.362567 -0.000001 -0.017140
N -0.949200 0.000001 -0.320021
C -0.285302 -1.190571 0.180769
C 1.187641 -1.162005 -0.194470
O 1.814672 -0.000001 0.297676
C 1.187642 1.162004 -0.194471
C -0.285301 1.190573 0.180770
H -2.563391 -0.000047 1.076147
H -2.839905 0.891153 -0.449742
H -2.839924 -0.891105 -0.449822
H -0.374764 -1.264696 1.288632
H -0.759807 -2.084395 -0.252500
H 1.713006 -2.025078 0.235368
H 1.280343 -1.203430 -1.296791
H 1.713008 2.025077 0.235364
H 1.280340 1.203426 -1.296792
H -0.759804 2.084397 -0.252500
H -0.374762 1.264698 1.288633