19

C 1.681931 1.487948 0.066483
C 1.519419 -0.003667 -0.006502
C 2.771766 -0.833662 0.014424
C 0.316938 -0.582624 -0.107263
O -0.838994 0.126048 -0.195029
C -2.004717 -0.570222 0.205963
C -3.202818 0.317313 -0.039702
H 2.237471 1.863956 -0.808283
H 0.710610 1.995067 0.106269
H 2.266610 1.769558 0.957100
H 3.423326 -0.582485 -0.838461
H 3.355894 -0.635720 0.927743
H 2.552012 -1.909324 -0.028321
H 0.205874 -1.673888 -0.154228
H -2.089602 -1.510122 -0.368831
H -1.928765 -0.841295 1.273810
H -3.270067 0.580768 -1.104132
H -4.126138 -0.199725 0.253085
H -3.120380 1.244313 0.544071