55

C -4.117871 -2.744289 0.239736
C -2.929865 -1.832305 0.528518
C -1.939649 -2.588912 1.425449
O -2.308821 -1.479889 -0.687652
B -1.593387 -0.205526 -0.472030
C -0.012290 -0.433625 -0.081166
C 0.661905 0.451028 0.773663
C 2.030474 0.338514 1.016970
C 2.694611 1.302806 1.955166
F 2.563131 0.929044 3.236384
F 4.007682 1.412014 1.723435
F 2.173630 2.531585 1.865420
C 2.783651 -0.675254 0.423581
C 2.125805 -1.570652 -0.414673
C 2.877568 -2.691133 -1.070916
F 4.192654 -2.632366 -0.840875
F 2.459763 -3.890903 -0.642709
F 2.710906 -2.690531 -2.400130
C 0.754482 -1.449111 -0.662052
C -1.618369 0.711735 -1.863385
C -3.049584 0.968182 -2.333506
C -0.834452 1.978284 -1.662717
C 0.461715 2.130963 -2.181940
C 1.227214 3.267645 -1.919798
C 0.710672 4.296276 -1.131061
C -0.579881 4.168600 -0.612432
C -1.338212 3.028342 -0.875648
O -2.314567 0.429859 0.659283
C -3.321130 -0.435171 1.139057
C -4.685955 0.043320 0.632201
C -3.330622 -0.406051 2.666235
H -4.690643 -2.953139 1.156481
H -4.791535 -2.296256 -0.501967
H -3.754707 -3.702246 -0.162294
H -1.539902 -3.445824 0.862345
H -1.095373 -1.949735 1.716560
H -2.423939 -2.967732 2.337572
H 0.094804 1.259555 1.243929
H 3.854924 -0.759136 0.604753
H 0.266630 -2.166267 -1.330328
H -1.094255 0.117616 -2.634454
H -3.573217 0.012700 -2.485596
H -3.614990 1.526224 -1.572732
H -3.091645 1.542417 -3.274587
H 0.882532 1.327407 -2.793248
H 2.234039 3.350501 -2.335279
H 1.305738 5.186886 -0.921247
H -0.997311 4.963028 0.010308
H -2.331872 2.924883 -0.435805
H -4.749900 -0.051505 -0.459111
H -5.514467 -0.520036 1.087259
H -4.803463 1.106350 0.892485
H -3.636243 0.593230 3.011677
H -4.040308 -1.141190 3.077176
H -2.332053 -0.614608 3.071797