15

O 1.785881 1.500042 -0.000132
C 1.332681 0.369891 -0.000018
O 2.011466 -0.741688 0.000100
O 3.420871 -0.619934 0.000088
C -0.154696 0.110902 -0.000008
C -1.012945 1.214687 -0.000101
C -2.395011 1.033986 -0.000102
C -2.929652 -0.255427 -0.000009
C -2.076960 -1.361504 0.000085
C -0.694710 -1.181106 0.000086
H -0.573674 2.213006 -0.000175
H -3.058065 1.900699 -0.000176
H -4.011381 -0.399704 -0.000011
H -2.492053 -2.370784 0.000157
H -0.022808 -2.039148 0.000158