31

O -0.279421 -2.005279 -0.473108
C 0.428213 -1.009441 -0.711824
C 0.068941 0.368569 -0.628765
C -1.242651 0.824905 -0.260214
O -2.165973 -0.149475 -0.005478
C -3.465869 0.293175 0.333600
C -4.320332 -0.933763 0.566672
O -1.602137 2.001440 -0.161933
C 1.068164 1.485363 -0.902005
C 2.425405 1.504594 -0.162359
C 2.457151 0.958549 1.267230
C 2.249864 -0.559128 1.435598
C 2.715784 -1.443943 0.273041
C 1.897462 -1.303547 -1.034793
H -3.427918 0.930448 1.231764
H -3.876180 0.919114 -0.475348
H -5.346707 -0.644643 0.830674
H -4.354475 -1.555853 -0.338860
H -3.907435 -1.541179 1.384273
H 1.294069 1.571760 -1.983574
H 0.541651 2.414321 -0.647507
H 3.196261 0.975529 -0.743740
H 2.770455 2.551785 -0.131012
H 3.441428 1.222656 1.688997
H 1.712774 1.492673 1.881950
H 2.784329 -0.881065 2.344118
H 1.188092 -0.777038 1.619900
H 3.784926 -1.267526 0.065430
H 2.638177 -2.489380 0.610361
H 1.919394 -2.262661 -1.572103
H 2.328617 -0.544433 -1.698259