28

C -0.000036 2.588290 0.503311
N -0.000006 1.144649 0.416014
C -1.203353 0.476255 0.142343
C -2.360779 1.159927 -0.259344
C -3.530805 0.454354 -0.541078
C -3.562325 -0.934759 -0.448859
C -2.408183 -1.614999 -0.054526
C -1.237204 -0.929031 0.255292
C 0.000007 -1.613821 0.774590
C 1.237216 -0.929020 0.255302
C 2.408198 -1.614983 -0.054513
C 3.562337 -0.934743 -0.448851
C 3.530809 0.454368 -0.541084
C 2.360782 1.159939 -0.259351
C 1.203358 0.476269 0.142356
H -0.885687 2.917093 1.060223
H 0.885564 2.917137 1.060274
H -0.000022 3.083145 -0.484577
H -2.352365 2.242994 -0.372291
H -4.420999 1.004967 -0.850043
H -4.474833 -1.485827 -0.678527
H -2.416909 -2.704063 0.032565
H 0.000003 -1.553045 1.879667
H 0.000012 -2.681352 0.515420
H 2.416927 -2.704048 0.032579
H 4.474846 -1.485809 -0.678520
H 4.420999 1.004981 -0.850063
H 2.352366 2.243002 -0.372323