21

N 0.669326 1.669969 -0.455981
C 0.666853 0.370338 0.213478
C -0.480621 -0.501794 -0.282259
C -1.869095 0.142410 -0.224894
C -2.930043 -0.852043 -0.691973
C -2.192254 0.673171 1.169728
C 2.029909 -0.381489 0.119984
O 3.006249 0.290174 -0.279733
O 2.033114 -1.573801 0.490914
H 1.636405 1.995538 -0.390901
H 0.554388 1.492704 -1.456787
H 0.512397 0.541480 1.296675
H -0.270259 -0.802859 -1.326203
H -0.475524 -1.429462 0.310822
H -1.871538 1.002309 -0.916649
H -2.970930 -1.716802 -0.009507
H -3.930237 -0.393908 -0.716330
H -2.705120 -1.232700 -1.699921
H -1.503556 1.482250 1.451562
H -3.218854 1.067151 1.214474
H -2.105851 -0.130034 1.920794