20

C -1.980813 2.048222 -0.000065
C -1.430425 0.651458 -0.000045
C -2.252582 -0.451594 -0.000060
C -1.690438 -1.754403 -0.000029
N -0.405147 -2.000193 -0.000001
C 0.442424 -0.932233 0.000012
C 1.841375 -1.187386 0.000052
C 2.743416 -0.151123 0.000075
C 2.287742 1.190482 0.000060
C 0.940303 1.467917 0.000021
C -0.017057 0.416919 -0.000005
H -1.639677 2.604885 0.885285
H -1.639523 2.604929 -0.885326
H -3.077133 2.035099 -0.000159
H -3.337486 -0.336373 -0.000096
H -2.361280 -2.620456 -0.000053
H 2.162489 -2.229935 0.000063
H 3.814851 -0.356961 0.000104
H 3.011410 2.006753 0.000081
H 0.598704 2.503855 0.000012