32

C -4.411744 -0.817594 -0.913174
C -3.790072 0.255610 -0.022788
C -3.912337 -0.126364 1.451035
C -2.332787 0.510796 -0.439867
H -2.349172 0.738859 -1.523914
C -1.692866 1.704929 0.270836
C -0.257946 1.902680 -0.201764
N 0.437590 0.622790 -0.155617
C -0.287521 -0.558513 -0.146168
N -1.540183 -0.703327 -0.258741
S 0.829745 -1.940734 0.044344
C 2.219242 -0.860621 0.049130
C 3.563257 -1.194579 0.148878
C 4.514648 -0.169782 0.126563
C 4.114214 1.160992 0.003600
C 2.762960 1.502211 -0.097873
C 1.812581 0.481619 -0.069631
H -5.466018 -0.986927 -0.650293
H -4.364996 -0.531343 -1.974826
H -3.865781 -1.764251 -0.793012
H -4.330999 1.203499 -0.189021
H -3.303709 -1.019824 1.657189
H -3.578068 0.679050 2.120535
H -4.957360 -0.356662 1.704513
H -2.268572 2.621153 0.080532
H -1.691082 1.526651 1.356921
H -0.228058 2.306765 -1.226881
H 0.271494 2.607661 0.454969
H 3.868142 -2.237778 0.241724
H 5.573913 -0.416406 0.202934
H 4.863875 1.953058 -0.018892
H 2.458844 2.543680 -0.204125