20

O -1.097777 1.339612 -0.500846
C -0.933009 0.328580 0.133896
O -1.895665 -0.573175 0.325039
C -3.144916 -0.303398 -0.300193
C 0.374732 -0.122531 0.767366
H 0.150001 -0.442769 1.796981
N 0.895001 -1.226506 -0.057891
C 2.259469 -0.906633 -0.478551
C 2.248867 0.616754 -0.535376
C 1.448929 0.970190 0.720823
H -3.561471 0.644151 0.066071
H -3.022920 -0.240646 -1.389674
H -3.806711 -1.134576 -0.040194
H 0.820091 -2.124371 0.408449
H 3.021317 -1.247328 0.248179
H 2.491060 -1.369616 -1.449278
H 3.255349 1.054198 -0.550389
H 1.706573 0.952865 -1.432355
H 1.012933 1.976135 0.697355
H 2.091874 0.888229 1.608756