35

C -3.384891 -1.534242 -1.092836
Si -3.332144 -0.000014 0.003109
C -3.385274 1.542503 -1.081099
C -4.819264 -0.004623 1.161177
C -1.743344 -0.003764 1.029930
C -0.447424 -0.000562 0.210111
C 0.826096 -0.004447 1.061282
Ge 2.490609 -0.000033 0.004468
C 2.546391 1.609038 -1.126087
C 4.042200 -0.007618 1.211186
C 2.543889 -1.597070 -1.143147
H -2.544301 -1.546724 -1.803128
H -3.332757 -2.451175 -0.485720
H -4.318873 -1.564015 -1.674660
H -4.319241 1.576381 -1.662727
H -3.333484 2.454806 -0.467016
H -2.544641 1.560648 -1.791220
H -4.813516 -0.897743 1.804526
H -4.813794 0.883683 1.811157
H -5.760056 -0.002642 0.589678
H -1.759458 0.875481 1.698715
H -1.759285 -0.888114 1.691956
H -0.439751 -0.876996 -0.461712
H -0.439454 0.881406 -0.454438
H 0.832504 0.875298 1.727472
H 0.832199 -0.890085 1.719623
H 2.499842 2.518532 -0.509374
H 3.477512 1.636774 -1.710588
H 1.700856 1.625213 -1.828921
H 4.032914 -0.902070 1.850834
H 4.979559 -0.005394 0.636107
H 4.034332 0.880201 1.860024
H 1.698466 -1.604298 -1.846263
H 3.475065 -1.620228 -1.727754
H 2.495614 -2.512999 -0.536167