20

N -3.649811 -0.073637 -0.199283
C -2.237470 -0.025457 -0.547519
C -1.372575 -0.011511 0.714734
C 0.099639 -0.002253 0.392868
C 0.785516 1.203565 0.200372
C 2.135910 1.212135 -0.150176
C 2.823923 0.009457 -0.316425
C 2.151567 -1.199264 -0.129396
C 0.801152 -1.202286 0.220238
H -3.915928 0.804995 0.245422
H -4.211256 -0.127036 -1.047583
H -1.986616 -0.924778 -1.133144
H -1.953667 0.843371 -1.174399
H -1.629812 0.879022 1.311106
H -1.629091 -0.894872 1.318718
H 0.252826 2.148881 0.332262
H 2.653402 2.162657 -0.291749
H 3.881011 0.013972 -0.587435
H 2.681651 -2.145201 -0.253980
H 0.280179 -2.151872 0.367590