14

N 0.000003 -1.615246 1.151026
C 0.000074 -2.303924 0.000000
N 0.000003 -1.615246 -1.151026
C 0.000003 -0.319374 -0.716800
C -0.000014 0.896796 -1.426835
C -0.000026 2.085803 -0.707282
C -0.000026 2.085803 0.707282
C -0.000014 0.896796 1.426835
C 0.000003 -0.319374 0.716800
H 0.000071 -3.399600 0.000000
H -0.000019 0.899638 -2.519828
H -0.000041 3.039301 -1.239982
H -0.000041 3.039301 1.239982
H -0.000019 0.899638 2.519828