11

C 2.112860 -0.042580 0.000027
C 0.612534 -0.002656 -0.000014
C -0.234386 1.104133 -0.000067
N -1.532134 0.682571 0.000069
C -1.409480 -0.651711 -0.000008
N -0.153332 -1.129880 -0.000015
H 2.511076 -0.566604 0.884418
H 2.511026 -0.567699 -0.883733
H 2.531423 0.974217 -0.000600
H 0.037314 2.162961 -0.000101
H -2.281745 -1.314829 0.000017