17

N 2.756707 -0.504156 -0.179669
C 1.900179 0.608542 0.198435
C 0.428052 0.270271 0.084309
C -0.017406 -1.054882 0.118700
C -1.380326 -1.349463 0.049151
C -2.317770 -0.322109 -0.053986
C -1.882274 1.003962 -0.092582
C -0.520371 1.294919 -0.027902
H 2.678322 -0.669890 -1.182988
H 3.730245 -0.259314 -0.010880
H 2.113728 0.856817 1.251918
H 2.084712 1.538213 -0.372804
H 0.721597 -1.852848 0.196842
H -1.711511 -2.389404 0.075752
H -3.383190 -0.551570 -0.109086
H -2.607134 1.815290 -0.180374
H -0.184223 2.334368 -0.067449