10

H -2.062557 0.219442 -0.058389
N -1.202714 -0.323554 -0.124796
C -0.052192 0.556801 0.052159
C 1.242897 -0.235929 -0.025735
H -1.241081 -0.979102 0.656172
H -0.067308 1.307539 -0.753859
H -0.071068 1.124674 1.002869
H 1.304087 -0.775981 -0.981611
H 2.118961 0.421255 0.063837
H 1.293730 -0.978179 0.786013