34

O 2.735962 1.456671 -0.757693
C 1.659730 1.179510 -0.263391
C 1.027312 -0.133194 -0.167559
C -0.411918 -0.279126 -0.114123
C -1.296861 0.726286 -0.607734
C -2.670313 0.592521 -0.561706
C -3.232614 -0.567431 -0.018488
N -4.667443 -0.711527 0.037477
O -5.359772 0.211286 -0.351390
O -5.129655 -1.749739 0.473857
C -2.411204 -1.588742 0.467419
C -1.037539 -1.446644 0.414700
C 1.866158 -1.315657 -0.153307
O 3.178320 -1.067030 0.081055
C 4.047412 -2.189422 0.064003
C 5.451759 -1.686989 0.311895
O 1.495320 -2.473296 -0.299274
O 0.910881 2.167528 0.299233
C 1.378305 3.497936 0.125673
C 0.338931 4.432221 0.703087
H -0.882492 1.628603 -1.051899
H -3.323182 1.369490 -0.957067
H -2.864194 -2.481774 0.896056
H -0.412775 -2.249209 0.796584
H 3.734231 -2.911663 0.834021
H 3.967144 -2.704392 -0.906091
H 6.162134 -2.524479 0.304725
H 5.747459 -0.970448 -0.466722
H 5.515557 -1.184289 1.286949
H 2.351283 3.614294 0.627924
H 1.547116 3.690948 -0.945258
H 0.666981 5.475101 0.598960
H -0.620901 4.315292 0.180488
H 0.180346 4.222245 1.769879