22

C 3.526772 -0.007114 -0.267634
C 2.176253 0.355079 0.339530
C 1.042467 -0.525657 -0.177234
C -0.325176 -0.206761 0.426151
C -0.908515 1.135526 0.033490
C -2.214630 1.054483 -0.234394
C -2.733512 -0.352737 -0.055075
C -1.436840 -1.182511 -0.016180
H 3.792686 -1.050464 -0.039049
H 3.505072 0.096803 -1.363023
H 4.330033 0.637510 0.115787
H 2.225877 0.268988 1.438060
H 1.949316 1.412624 0.126429
H 0.975311 -0.436721 -1.276543
H 1.283494 -1.582574 0.032944
H -0.220321 -0.231638 1.528731
H -0.327119 2.060380 0.018802
H -2.852226 1.899611 -0.502283
H -3.296485 -0.428770 0.891884
H -3.420884 -0.668277 -0.854032
H -1.202130 -1.528257 -1.036247
H -1.503531 -2.071066 0.626619