22

O -3.452740 1.421173 -0.631767
S -2.281648 0.539898 -0.630228
C -0.937964 1.348848 -0.067586
H -1.198428 2.261247 0.465582
C 0.394429 0.853894 -0.069237
C 1.414779 1.651567 0.530665
C 2.731925 1.246555 0.567651
C 3.089060 0.016231 0.001027
N 4.464141 -0.413409 0.034978
O 5.286620 0.311916 0.564561
O 4.751407 -1.484121 -0.468948
C 2.120253 -0.799623 -0.595629
C 0.802160 -0.392692 -0.632462
C -2.773019 -0.729683 0.639257
F -3.048121 -0.144438 1.799045
F -3.848097 -1.401564 0.243529
F -1.784106 -1.598774 0.835409
O -2.033427 -0.318947 -1.795235
H 1.137093 2.609670 0.973318
H 3.498927 1.866421 1.030004
H 2.420979 -1.754348 -1.025366
H 0.057114 -1.035259 -1.097595