17

Br -2.938435 -0.136028 -0.459136
C -0.993022 -0.299230 -0.813936
H -0.774863 0.508192 -1.531207
S -0.192713 0.199095 0.647974
O -0.431371 -0.788327 1.719422
C 1.525109 0.040106 0.147112
C 2.224388 1.172255 -0.262122
C 3.558599 1.039734 -0.650885
C 4.173553 -0.212077 -0.618825
C 3.462248 -1.338270 -0.195434
C 2.129466 -1.215400 0.191133
O -0.361165 1.611829 1.060613
H 1.722232 2.140700 -0.260317
H 4.120459 1.917435 -0.973922
H 5.216997 -0.311911 -0.921838
H 3.950282 -2.313514 -0.164702
H 1.551759 -2.076181 0.531621