25

Si 0.000001 1.587937 0.000001
H 0.095460 2.463147 1.201710
H -0.095458 2.463149 -1.201706
C 1.540388 0.509511 -0.056947
C 1.569303 -0.653033 -0.844899
C 2.713637 -1.447077 -0.912049
C 3.852238 -1.091307 -0.186748
C 3.841073 0.057767 0.603984
C 2.693181 0.849101 0.667421
C -1.540388 0.509513 0.056948
C -2.693176 0.849098 -0.667428
C -3.841069 0.057764 -0.603993
C -3.852239 -1.091304 0.186746
C -2.713643 -1.447070 0.912056
C -1.569307 -0.653026 0.844907
H 0.681583 -0.948118 -1.412015
H 2.717088 -2.346998 -1.529540
H 4.747933 -1.713137 -0.234368
H 4.727367 0.336314 1.176816
H 2.697565 1.743411 1.296128
H -2.697556 1.743404 -1.296141
H -4.727359 0.336308 -1.176832
H -4.747934 -1.713133 0.234365
H -2.717097 -2.346987 1.529552
H -0.681591 -0.948108 1.412031