12

N -0.711726 1.724584 -0.054088
C -0.711726 0.267941 -0.037940
C 0.711726 -0.267941 -0.037940
N 0.711726 -1.724584 -0.054088
H -1.668975 2.067369 -0.113097
H -0.359029 2.070855 0.838283
H -1.253372 -0.172422 0.824470
H -1.217478 -0.101474 -0.943405
H 1.217478 0.101474 -0.943405
H 1.253372 0.172422 0.824470
H 1.668975 -2.067369 -0.113097
H 0.359029 -2.070855 0.838283