34

C 1.723236 2.494919 0.193317
N 2.379644 1.207993 0.147499
C 3.752310 1.253962 -0.321363
C 1.595385 0.094298 -0.115011
N 0.392362 0.248839 -0.537428
C -0.549973 -0.832156 -0.438384
C -1.964251 -0.348014 -0.173935
C -2.301157 1.007083 -0.207606
C -3.617228 1.417009 0.019874
C -4.612725 0.478023 0.284363
C -4.283663 -0.879252 0.321189
C -2.970763 -1.285121 0.093961
N 2.203190 -1.126120 0.154569
C 2.053607 -2.246843 -0.745831
C 3.118529 -1.312552 1.257464
H 1.494850 2.883860 -0.816103
H 0.779156 2.411596 0.743890
H 2.382470 3.211904 0.703434
H 4.407366 1.722851 0.429174
H 4.121630 0.243154 -0.524933
H 3.827825 1.838754 -1.255964
H -0.584822 -1.425646 -1.372473
H -0.274543 -1.553773 0.355554
H -1.512663 1.731011 -0.414372
H -3.864592 2.480095 -0.009514
H -5.640329 0.799203 0.462735
H -5.054656 -1.623792 0.528156
H -2.718215 -2.348771 0.124323
H 3.048210 -2.635888 -1.023865
H 1.476263 -3.076268 -0.301838
H 1.549934 -1.923404 -1.663908
H 3.109263 -0.424595 1.899560
H 2.811716 -2.184304 1.859014
H 4.154934 -1.489099 0.916419