12

C 2.055311 0.032582 0.000553
N 0.604955 0.016894 -0.000864
C -0.223185 1.108591 -0.000348
C -1.501839 0.601879 0.000229
N -1.469506 -0.767578 0.000418
C -0.194075 -1.081094 0.000024
H 2.432291 0.526849 0.904779
H 2.418891 -1.000719 -0.019400
H 2.432087 0.561215 -0.883978
H 0.163513 2.123893 -0.001023
H -2.436586 1.159199 0.000119
H 0.224399 -2.087391 -0.000122