13

C 0.419421 -1.314153 0.059614
N -0.000057 -0.000007 -0.376311
C -1.347836 0.293872 0.059587
C 0.928447 1.020226 0.059554
H -0.271772 -2.078792 -0.323783
H 1.425706 -1.537006 -0.324035
H 0.448982 -1.406196 1.168307
H -1.442331 0.314366 1.168263
H -1.664449 1.274784 -0.323628
H -2.044134 -0.465962 -0.324114
H 1.936251 0.804275 -0.323959
H 0.618453 2.003255 -0.323634
H 0.993498 1.091659 1.168231