17

C -0.083382 1.123817 0.325666
C -1.276619 0.669925 -0.497130
C -1.276633 -0.669906 -0.497124
C -0.083400 -1.123816 0.325665
C -0.025340 -0.000001 1.376304
C 1.177809 -0.776655 -0.524394
C 1.177824 0.776639 -0.524388
H -0.111424 2.156709 0.692812
H -1.926074 1.328643 -1.075661
H -1.926103 -1.328613 -1.075652
H -0.111455 -2.156709 0.692809
H 0.907485 -0.000009 1.960885
H -0.893522 0.000005 2.049714
H 2.082031 -1.175562 -0.042806
H 1.117713 -1.205927 -1.533452
H 1.117740 1.205920 -1.533443
H 2.082052 1.175526 -0.042793