28

C -0.340536 2.369442 -0.383696
N -0.232070 0.928622 -0.283581
C 1.039489 0.337944 -0.136429
C 1.382675 -0.824518 -0.844030
C 2.642703 -1.398659 -0.692813
C 3.595010 -0.810858 0.140737
C 3.269539 0.359510 0.826336
C 2.003154 0.926556 0.697518
C -1.416657 0.227906 -0.125406
C -2.664339 0.746447 -0.183201
C -3.709273 -0.319085 0.043219
C -2.895444 -1.449300 0.696956
C -1.464815 -1.259694 0.170684
H -0.994382 2.636389 -1.228750
H -0.773251 2.812975 0.530132
H 0.648449 2.803611 -0.564485
H 0.661257 -1.262222 -1.533580
H 2.888319 -2.303466 -1.251484
H 4.584268 -1.257188 0.249815
H 4.002913 0.831074 1.482793
H 1.750439 1.826392 1.260554
H -2.906709 1.784798 -0.404366
H -4.541715 0.015490 0.680852
H -4.160060 -0.650263 -0.910887
H -2.895338 -1.303304 1.787559
H -3.294364 -2.452361 0.494177
H -1.301858 -1.839708 -0.752895
H -0.692510 -1.576718 0.886387