20

C 1.201609 -0.705901 1.495391
C 1.037681 -0.345553 0.010514
C 2.410824 -0.320011 -0.654094
C 0.129475 -1.348118 -0.704596
C -1.284674 -1.281295 -0.160173
C -1.806312 0.153042 -0.027808
O -3.026490 0.299715 0.084629
N -0.956961 1.202134 -0.021675
C 0.387782 1.057939 -0.057412
O 1.137871 2.036570 -0.093590
H 1.878547 0.010948 1.983608
H 0.242939 -0.680980 2.033317
H 1.632452 -1.714583 1.601435
H 2.882984 -1.312908 -0.586320
H 2.328147 -0.050018 -1.717916
H 3.061221 0.418340 -0.168649
H 0.120771 -1.103757 -1.780699
H 0.546521 -2.364756 -0.611344
H -2.000647 -1.833725 -0.784678
H -1.343567 -1.734397 0.843732