10

O 1.962708 1.059893 -0.000263
N 1.386082 -0.019718 -0.000108
O 1.978630 -1.084172 0.000025
C -0.033462 -0.011738 -0.000003
C -0.860850 1.118571 -0.000021
N -2.130444 0.689270 0.000255
C -2.012600 -0.663285 -0.000294
N -0.773879 -1.143800 0.000428
H -0.572815 2.168676 -0.000070
H -2.888721 -1.315986 -0.000143