15

H 1.741983 -1.959277 0.000025
C 1.497647 -0.898791 0.000001
C 0.130499 -0.388413 0.000009
C -0.935655 -1.304068 0.000055
C -2.253569 -0.856435 0.000064
C -2.537646 0.510402 0.000027
C -1.484063 1.426143 -0.000019
C -0.163119 0.986799 -0.000029
N 2.508652 -0.083087 -0.000038
N 3.368069 0.652891 -0.000073
H -0.722614 -2.374864 0.000084
H -3.067478 -1.583494 0.000101
H -3.570924 0.859492 0.000035
H -1.690978 2.497708 -0.000049
H 0.648391 1.717992 -0.000066