28

C 4.008153 1.103440 0.473860
C 3.198272 0.087957 0.156671
C 1.810287 -0.027325 0.738241
C 0.696023 -0.007417 -0.311311
C -0.696022 -0.007323 0.311318
C -1.810286 -0.027456 -0.738233
C -3.198269 0.087937 -0.156682
C -3.615444 -0.996266 0.800551
C -4.008105 1.103425 -0.473972
C 3.615397 -0.996357 -0.800458
H 5.013632 1.182318 0.052668
H 3.688391 1.886012 1.166534
H 1.738130 -0.971106 1.308669
H 1.647738 0.791410 1.456798
H 0.814497 0.885484 -0.948981
H 0.789791 -0.880441 -0.978689
H -0.789816 -0.880180 0.978909
H -0.814476 0.885739 0.948765
H -1.647740 0.791138 -1.456952
H -1.738118 -0.971351 -1.308471
H -3.004130 -0.970854 1.716200
H -4.669399 -0.894303 1.090046
H -3.467785 -1.990181 0.348550
H -3.688307 1.885912 -1.166725
H -5.013579 1.182394 -0.052784
H 3.467661 -1.990224 -0.348379
H 3.004108 -0.970979 -1.716124
H 4.669366 -0.894487 -1.089937