13

C -1.916603 -0.134198 0.024088
C -0.542915 0.519030 -0.057240
C 0.596187 -0.487786 0.025107
N 1.888828 0.175958 -0.095337
H -2.059224 -0.854170 -0.796044
H -2.039512 -0.680605 0.971460
H -2.721264 0.611179 -0.039884
H -0.438834 1.084059 -0.997191
H -0.428239 1.252476 0.759482
H 0.481740 -1.077022 0.957781
H 0.495306 -1.206424 -0.805338
H 2.032837 0.772599 0.719568
H 2.635390 -0.516068 -0.054201