24

C -2.299650 1.309489 0.049408
C -1.802154 0.124890 -0.331114
C -2.485329 -1.169702 0.021413
C -0.518933 -0.001379 -1.106707
Si 1.020973 -0.017715 0.015106
C 0.821545 -1.276050 1.402589
C 2.518867 -0.460290 -1.037390
C 1.244567 1.697674 0.756746
H -3.217052 1.374594 0.639047
H -1.804934 2.245290 -0.224472
H -2.823964 -1.680541 -0.894296
H -1.787302 -1.856909 0.524218
H -3.353318 -1.008954 0.674175
H -0.520957 -0.920105 -1.715870
H -0.388964 0.848493 -1.796477
H 0.682764 -2.293642 1.006531
H 1.718568 -1.280284 2.040738
H -0.043588 -1.029678 2.037313
H 2.651557 0.263561 -1.855621
H 3.436594 -0.458584 -0.429734
H 2.405507 -1.461054 -1.481059
H 0.365795 1.983529 1.353953
H 2.128125 1.722155 1.412777
H 1.384076 2.452342 -0.032374