11

N -1.869953 0.034703 -0.265078
C -0.714965 -0.718725 0.179225
C 0.537874 0.132072 0.026204
N 1.692724 -0.550627 -0.104106
O 0.484202 1.350301 0.066023
H -2.718072 -0.375446 0.118726
H -1.795505 0.971367 0.131778
H -0.739215 -1.020319 1.246055
H -0.603220 -1.645843 -0.404013
H 1.718222 -1.560493 -0.140908
H 2.567327 -0.040295 -0.128105