53

C -2.258549 3.850307 -0.104740
C -1.591942 2.577863 0.420521
C -2.520030 1.860611 1.400708
C -1.170313 1.656896 -0.731755
Sn -0.012577 -0.079092 -0.088792
C 1.162501 0.519844 1.650994
C 2.204827 -0.494125 2.140910
C 2.982908 0.060569 3.335475
C 1.570668 -1.837912 2.498215
C -1.391077 -1.694179 0.419733
C -2.694798 -1.689187 -0.387099
C -2.423757 -1.830980 -1.884821
C -3.643602 -2.789467 0.091215
C 1.361569 -0.750979 -1.643299
C 2.661323 0.055166 -1.767521
C 3.559092 -0.522145 -2.863265
C 2.391863 1.537773 -2.026148
H -2.541693 4.526372 0.716727
H -1.588740 4.398372 -0.783617
H -3.172935 3.596921 -0.665657
H -0.683901 2.879434 0.974484
H -2.053251 0.958349 1.828991
H -2.804585 2.515425 2.237628
H -3.445053 1.547187 0.888957
H -2.069211 1.311404 -1.273081
H -0.565308 2.216524 -1.463059
H 1.656622 1.475227 1.404971
H 0.458162 0.742696 2.472882
H 2.927891 -0.671537 1.324404
H 2.301563 0.235407 4.184152
H 3.765266 -0.638682 3.668294
H 3.462939 1.018660 3.087076
H 1.106125 -2.319719 1.623716
H 2.317523 -2.536478 2.903558
H 0.785521 -1.702368 3.260578
H -0.870438 -2.656290 0.265286
H -1.606421 -1.628153 1.499467
H -3.198025 -0.718464 -0.225290
H -1.871973 -2.763719 -2.087567
H -3.359368 -1.859182 -2.462507
H -1.820002 -0.994920 -2.274107
H -3.866143 -2.681529 1.163004
H -4.595830 -2.769481 -0.460758
H -3.185238 -3.780493 -0.059356
H 1.592358 -1.810576 -1.440846
H 0.824601 -0.732230 -2.608470
H 3.208766 -0.021742 -0.811064
H 3.059717 -0.447290 -3.842963
H 4.515494 0.018993 -2.928799
H 3.778226 -1.584050 -2.677966
H 1.773812 1.664445 -2.930712
H 1.859015 2.012452 -1.186456
H 3.329261 2.093299 -2.177043