31

C 0.685708 2.028999 1.305925
C -0.047085 1.435063 0.094237
C 0.481453 2.050548 -1.209396
C -0.096199 -0.088487 0.079355
C -1.349594 -0.775751 0.059171
O -2.437180 0.082201 -0.001134
C -3.711805 -0.526806 -0.018908
C -4.750090 0.568868 -0.131719
O -1.578601 -1.981428 0.079416
C 1.090981 -0.883339 0.030019
O 2.237105 -0.109626 -0.030835
C 3.465339 -0.806806 -0.070086
C 4.581980 0.212977 -0.132562
O 1.224465 -2.103337 0.024763
H 0.575865 3.125777 1.330036
H 0.273152 1.627423 2.244272
H 1.757609 1.792246 1.274696
H -1.090395 1.760554 0.185170
H 1.528546 1.762933 -1.378668
H -0.113715 1.705072 -2.068664
H 0.427105 3.151542 -1.180432
H -3.782130 -1.230527 -0.863778
H -3.860048 -1.122926 0.896517
H -4.682652 1.257011 0.722758
H -4.599757 1.148200 -1.053614
H -5.760913 0.139093 -0.152480
H 3.562545 -1.450303 0.819588
H 3.490351 -1.478292 -0.943522
H 4.487265 0.839289 -1.031159
H 4.558642 0.869208 0.749177
H 5.558088 -0.290378 -0.163781