41

C -0.472885 3.410731 -0.198949
Si 0.834978 2.053978 -0.046408
C 2.361665 2.557533 -1.038708
C 1.313928 1.861525 1.773818
Si -0.001680 -0.002351 -0.820189
H -0.000532 -0.003454 -2.322764
Si 1.364459 -1.751520 -0.045691
C 0.957596 -2.071090 1.773572
C 1.042364 -3.322323 -1.043152
C 3.190806 -1.287842 -0.196465
Si -2.200897 -0.304334 -0.045580
C -3.398695 0.759561 -1.045918
C -2.718727 -2.116795 -0.188753
C -2.271797 0.214424 1.771643
H -0.793635 3.532196 -1.244695
H -1.362566 3.176451 0.405700
H -0.068090 4.373872 0.150260
H 2.773934 3.503798 -0.654084
H 3.146641 1.789284 -0.975160
H 2.107581 2.699481 -2.099682
H 0.458160 1.523657 2.377872
H 2.126389 1.128002 1.893083
H 1.663060 2.823520 2.181136
H -0.080276 -2.419392 1.890983
H 1.624611 -2.844820 2.185186
H 1.080545 -1.157050 2.374196
H 1.296137 -3.167713 -2.102493
H 1.652924 -4.155318 -0.660587
H -0.016396 -3.615873 -0.985723
H 3.428373 -0.400047 0.409481
H 3.826749 -2.117224 0.151279
H 3.454773 -1.067871 -1.242124
H -3.392927 0.459948 -2.104720
H -4.424867 0.647746 -0.661740
H -3.123973 1.823521 -0.991006
H -2.071558 -2.764917 0.421956
H -3.755567 -2.247773 0.159108
H -2.660460 -2.462218 -1.232068
H -2.039645 1.284670 1.886143
H -3.279219 0.039411 2.181092
H -1.551730 -0.357059 2.377023