41

C 0.043238 3.026958 -0.046721
C -0.396362 1.775257 -0.255761
O 0.361333 0.680619 -0.386516
Si 1.948635 0.382999 0.181974
C 2.018751 0.828738 1.995897
C 2.138266 -1.472888 -0.126767
C 2.050729 -1.741248 -1.635160
C 3.495085 -1.951938 0.407344
C 1.008056 -2.223147 0.590992
C 3.163828 1.383856 -0.832479
O -1.714285 1.527683 -0.389602
C -2.181970 0.220018 -0.083639
C -3.695129 0.240477 -0.125329
C -4.297743 -1.127541 0.176151
C -5.821340 -1.119366 0.134095
H -0.681973 3.829015 0.068569
H 1.107602 3.249068 -0.027098
H 1.309415 0.226841 2.582545
H 3.030518 0.657528 2.393289
H 1.771106 1.889841 2.141362
H 2.866674 -1.245892 -2.184414
H 2.124353 -2.824178 -1.833303
H 1.094826 -1.385586 -2.050177
H 3.588017 -1.789839 1.492755
H 3.612918 -3.033235 0.222642
H 4.336368 -1.440392 -0.086508
H 0.020799 -1.888658 0.238459
H 1.090320 -3.306352 0.398610
H 1.047690 -2.076416 1.681744
H 3.203072 2.434070 -0.510099
H 4.176638 0.965694 -0.727971
H 2.891819 1.359040 -1.898059
H -1.782271 -0.503384 -0.811998
H -1.821684 -0.081862 0.915575
H -4.063389 0.984429 0.599697
H -4.016640 0.582792 -1.122659
H -3.909526 -1.862817 -0.548149
H -3.955394 -1.465102 1.168640
H -6.230404 -0.410996 0.870041
H -6.184738 -0.814349 -0.858669
H -6.235848 -2.112716 0.354759