31

C 1.203829 2.165121 -0.698574
C 0.872463 0.919846 -0.318358
Si 2.250206 -0.315084 0.128566
C 3.827462 0.651697 0.473106
C 1.737440 -1.272463 1.665572
C 2.591026 -1.504542 -1.294882
C -0.558801 0.526761 -0.200634
C -1.523035 1.429334 0.278666
C -2.860494 1.062840 0.389954
C -3.295236 -0.220069 0.030275
C -4.748705 -0.599826 0.136944
C -2.335890 -1.124377 -0.436104
C -0.994199 -0.761294 -0.544041
H 0.445872 2.905024 -0.980272
H 2.245379 2.492868 -0.755188
H 3.674021 1.399039 1.265705
H 4.618767 -0.039402 0.801368
H 4.188973 1.170884 -0.427226
H 0.823285 -1.857507 1.486969
H 2.536388 -1.966529 1.967847
H 1.543806 -0.585479 2.503270
H 2.817805 -0.945825 -2.215397
H 3.466250 -2.126155 -1.049474
H 1.749440 -2.180135 -1.503122
H -1.210196 2.427853 0.590790
H -3.584387 1.784683 0.776633
H -5.332784 -0.141139 -0.675830
H -4.882683 -1.687528 0.073818
H -5.180379 -0.250189 1.085332
H -2.642343 -2.134064 -0.719088
H -0.275256 -1.493390 -0.917606