12

C -0.549453 1.887874 0.000000
C -0.549453 0.379111 0.000000
C 0.549453 -0.379111 0.000000
C 0.549453 -1.887874 0.000000
H -0.035044 2.289592 0.885825
H -0.035044 2.289592 -0.885825
H -1.570404 2.289708 0.000000
H -1.525062 -0.123053 0.000000
H 1.525062 0.123053 0.000000
H 0.035044 -2.289592 -0.885825
H 1.570404 -2.289708 0.000000
H 0.035044 -2.289592 0.885825