12

N -2.597498 -0.212634 0.118419
C -1.290199 0.398513 -0.113966
C -0.167620 -0.593191 0.124450
C 1.256728 0.007964 0.010662
O 1.344724 1.254385 0.041502
O 2.192197 -0.813983 -0.081631
H -3.332685 0.459766 -0.096631
H -2.729908 -0.971457 -0.550796
H -1.173955 0.828798 -1.128480
H -1.155410 1.238717 0.582987
H -0.276191 -1.027488 1.133820
H -0.238183 -1.442832 -0.575676