19

C 0.000000 3.546658 -0.686448
C -0.327328 2.354770 0.160948
C 0.343080 1.200128 0.153370
C 0.000000 0.000000 0.996274
H 0.850025 -0.257191 1.649868
H -0.850025 0.257191 1.649868
C -0.343080 -1.200128 0.153370
C 0.327328 -2.354770 0.160948
C 0.000000 -3.546658 -0.686448
H 0.234309 4.423437 -0.063076
H 0.861147 3.346650 -1.338741
H -0.855881 3.829041 -1.318675
H -1.184690 2.453153 0.838932
H 1.198780 1.085039 -0.524345
H -1.198780 -1.085039 -0.524345
H 1.184690 -2.453153 0.838932
H -0.234309 -4.423437 -0.063076
H -0.861147 -3.346650 -1.338741
H 0.855881 -3.829041 -1.318675