23

O 1.161868 1.438462 0.000054
C 1.201380 0.209289 0.000370
C 0.127175 -0.713398 0.000294
H 0.326302 -1.779174 0.000405
N -1.207560 -0.352312 0.000061
C -2.155253 -1.344054 0.000037
C -3.504628 -1.066984 -0.000177
C -3.955466 0.255049 -0.000381
C -2.989487 1.255776 -0.000355
C -1.639360 0.947236 -0.000135
O 2.396220 -0.443415 0.000255
C 3.558229 0.374680 0.000062
C 4.765583 -0.535535 -0.000047
H -1.766584 -2.360567 0.000201
H -4.199566 -1.906346 -0.000182
H -5.018921 0.489867 -0.000552
H -3.266374 2.310047 -0.000505
H -0.850826 1.694239 -0.000104
H 3.547824 1.029992 -0.884636
H 3.548054 1.030090 0.884689
H 4.765880 -1.177716 0.891471
H 4.765632 -1.177828 -0.891485
H 5.687763 0.060852 -0.000212