21

C 3.508006 -0.000055 0.281619
N 2.399744 0.000026 -0.654049
C 1.574915 -1.199671 -0.576700
C 0.618703 -1.200554 0.622000
N -0.209540 -0.000043 0.558262
C 0.618760 1.200423 0.622204
C 1.574939 1.199730 -0.576511
C -1.505238 0.000012 0.130891
S -2.307567 -1.499889 -0.131402
S -2.307423 1.499966 -0.131508
H 4.132257 -0.889110 0.109380
H 3.216507 -0.000184 1.351718
H 4.132206 0.889077 0.109588
H 2.228660 -2.084727 -0.549849
H 0.957627 -1.263279 -1.489903
H 1.185004 -1.180960 1.568272
H -0.027942 -2.082164 0.613606
H 1.185088 1.180602 1.568455
H -0.027840 2.082065 0.613996
H 2.228701 2.084768 -0.549525
H 0.957640 1.263496 -1.489694