17

C -1.319300 -0.000020 1.517453
C -1.087051 -0.000015 0.008938
O -0.387669 -1.165434 -0.381682
C 0.966192 -1.238990 -0.086053
C 1.607391 0.000025 0.152534
H 2.673738 0.000045 0.366183
O 1.457773 -2.357272 -0.094148
C -2.389660 -0.000038 -0.764206
O -0.387711 1.165425 -0.381699
C 0.966180 1.239005 -0.086212
O 1.457676 2.357326 -0.094078
H -0.362808 -0.000006 2.055280
H -1.889700 0.894045 1.802362
H -1.889674 -0.894101 1.802362
H -2.973326 0.895374 -0.514351
H -2.167999 -0.000034 -1.839346
H -2.973293 -0.895473 -0.514352