17

O -1.336542 1.574289 0.287526
C -0.994885 0.394300 0.075927
C 0.495126 0.093642 0.028710
C 1.368055 1.178896 -0.113853
C 2.747879 0.988864 -0.160504
C 3.279433 -0.297393 -0.052511
C 2.420396 -1.386573 0.103177
C 1.039465 -1.192633 0.142230
C -1.879561 -0.680244 -0.144444
H -1.536248 -1.683520 -0.385237
C -3.267975 -0.455840 -0.105462
N -4.419270 -0.270265 -0.070726
H 0.929906 2.175156 -0.182914
H 3.413699 1.846028 -0.277916
H 4.359503 -0.450904 -0.083534
H 2.828671 -2.394189 0.200890
H 0.384094 -2.053142 0.283963