35

C 3.806649 -1.603279 1.140795
Ge 3.813584 0.000000 0.000734
C 3.806669 1.603350 1.140695
C 5.423458 -0.000045 -1.127003
C 2.203436 -0.000026 -1.139011
C 0.889579 -0.000005 -0.348287
C -0.355398 -0.000018 -1.232734
Pb -2.245384 0.000000 -0.006816
C -2.245056 1.828429 1.304492
C -4.087226 -0.000023 -1.292623
C -2.245051 -1.828387 1.304550
H 2.929460 -1.609821 1.803943
H 3.782240 -2.515589 0.526993
H 4.709786 -1.633686 1.767656
H 4.709806 1.633784 1.767556
H 3.782271 2.515623 0.526838
H 2.929479 1.609943 1.803842
H 5.445373 -0.891249 -1.770888
H 5.445386 0.891120 -1.770940
H 6.331724 -0.000034 -0.507033
H 2.241282 0.883105 -1.799546
H 2.241278 -0.883189 -1.799502
H 0.867666 -0.879845 0.319590
H 0.867672 0.879862 0.319554
H -0.374380 0.888143 -1.882957
H -0.374380 -0.888201 -1.882929
H -2.255374 2.729339 0.677361
H -3.134608 1.821214 1.947595
H -1.343441 1.831202 1.931008
H -4.092644 -0.896087 -1.926273
H -4.978093 -0.000021 -0.651554
H -4.092653 0.896026 -1.926293
H -1.343435 -1.831139 1.931066
H -3.134602 -1.821154 1.947655
H -2.255368 -2.729317 0.677448