48

C -0.485574 5.001806 1.087147
C -0.329089 3.582400 1.620055
C -0.195914 2.540609 0.511458
C -0.041821 1.107977 1.030011
Si 0.074561 -0.177436 -0.344011
C 0.146622 -1.882536 0.455509
C 0.987321 -2.952558 0.291236
C 0.539533 -3.982880 1.181143
C -0.542301 -3.463982 1.825392
O -0.785734 -2.209350 1.400257
C -1.449963 -0.076254 -1.450327
C -2.773215 -0.148756 -0.682789
C -4.005759 -0.140138 -1.584392
C -5.312851 -0.200965 -0.802674
C 1.655597 0.018381 -1.349774
C 2.926951 0.166220 -0.508906
C 4.206429 0.212925 -1.341339
C 5.461792 0.379149 -0.493697
H 0.383772 5.290241 0.476775
H -1.379976 5.085655 0.451051
H -0.582172 5.733530 1.901459
H 0.555724 3.522687 2.275899
H -1.195139 3.319936 2.250559
H -1.081701 2.605728 -0.146058
H 0.668506 2.803010 -0.125214
H 0.855415 1.027438 1.667627
H -0.897070 0.844301 1.676635
H 1.834565 -2.995343 -0.390446
H 0.965053 -4.972431 1.323521
H -1.214531 -3.857214 2.582901
H -1.403105 0.859723 -2.034859
H -1.393096 -0.898070 -2.185321
H -2.790022 -1.056748 -0.054616
H -2.839057 0.700993 0.020143
H -3.984452 0.767407 -2.211079
H -3.945005 -0.993437 -2.280558
H -6.186656 -0.197684 -1.469332
H -5.359867 -1.113741 -0.189371
H -5.404259 0.659778 -0.122754
H 1.742864 -0.854100 -2.021972
H 1.539837 0.894034 -2.012150
H 2.861490 1.085513 0.099638
H 2.998587 -0.666189 0.213783
H 4.276600 -0.711818 -1.938693
H 4.130578 1.039824 -2.067398
H 5.424613 1.314785 0.084767
H 5.564186 -0.449483 0.223504
H 6.369796 0.402179 -1.112652