43

C -6.284620 -0.314263 1.441848
C -5.039597 -0.936061 0.819929
C -4.008658 0.107826 0.404479
C -2.771267 -0.511468 -0.211549
O -1.856544 0.520622 -0.554374
P -0.621149 0.161133 -1.580642
O 0.145700 1.597838 -1.523767
C 0.554044 2.182013 -0.283112
C 2.056857 2.070777 -0.113155
C 2.544408 2.664849 1.204008
C 4.050218 2.515282 1.386942
O 0.251805 -0.721411 -0.477931
C 1.382203 -1.449217 -0.939660
C 2.171432 -1.932888 0.259712
C 3.429389 -2.700989 -0.130976
C 4.229397 -3.162799 1.081365
H -7.014838 -1.081311 1.734642
H -6.026205 0.266840 2.339810
H -6.776790 0.369052 0.733708
H -4.578685 -1.638424 1.534213
H -5.324579 -1.536762 -0.060007
H -4.449270 0.809892 -0.322145
H -3.703365 0.705903 1.278878
H -2.291946 -1.207335 0.497492
H -3.045015 -1.092775 -1.112050
H 0.240564 3.236674 -0.303099
H 0.033964 1.689597 0.552517
H 2.332998 1.004682 -0.159607
H 2.554272 2.567457 -0.962500
H 2.265602 3.730667 1.251635
H 2.018643 2.171546 2.038678
H 4.387261 2.941470 2.342006
H 4.341606 1.453724 1.369207
H 4.596263 3.023440 0.578010
H 1.058177 -2.303367 -1.560058
H 2.020773 -0.804834 -1.571949
H 2.440362 -1.059030 0.877827
H 1.516088 -2.565021 0.881014
H 3.149828 -3.571498 -0.747391
H 4.060538 -2.061533 -0.770414
H 4.545602 -2.303386 1.691863
H 3.624135 -3.820955 1.722614
H 5.130741 -3.716467 0.784323