20

O 1.465266 -1.717006 0.214310
C 1.246916 -0.538827 -0.047029
C 0.000080 0.119927 -0.244167
O 0.000022 1.471501 -0.569588
C -0.000792 2.315692 0.552546
C -1.246743 -0.539275 -0.048454
O -2.309970 0.327431 -0.183656
C -3.582072 -0.249336 -0.001756
O -1.464899 -1.717211 0.214134
O 2.310095 0.327758 -0.183391
C 3.582302 -0.248978 -0.002117
H 0.896355 2.150285 1.174402
H -0.000758 3.357868 0.200196
H -0.898635 2.149984 1.173321
H -3.770307 -1.050622 -0.731889
H -3.692342 -0.680067 1.004718
H -4.315689 0.553565 -0.140293
H 3.693263 -0.679192 1.004501
H 3.769988 -1.050650 -0.731969
H 4.315856 0.553817 -0.141591