16

N -2.588507 2.221389 -0.000043
C -2.011831 1.207581 -0.000042
C -1.287113 -0.000001 -0.000052
C -2.011827 -1.207585 -0.000080
N -2.588596 -2.221340 0.000020
C 0.171878 -0.000007 -0.000009
C 0.907429 -1.205263 -0.000005
C 2.299345 -1.200870 0.000032
C 3.013087 -0.000009 0.000065
C 2.299347 1.200854 0.000061
C 0.907432 1.205249 0.000025
H 0.369947 -2.156270 -0.000030
H 2.834824 -2.152863 0.000034
H 4.103688 -0.000011 0.000093
H 2.834829 2.152846 0.000086
H 0.369951 2.156256 0.000023