24

C 4.982245 -0.338006 1.543328
S 4.246760 0.076162 -0.059770
C 4.968661 -1.248553 -1.058078
C 2.582394 -0.281957 0.056284
C 1.679965 0.774449 -0.196904
O 1.990397 1.944481 -0.464910
C 0.200783 0.435201 -0.115720
C -0.696884 1.504590 -0.030480
C -2.071219 1.290821 0.036359
C -2.550404 -0.017573 0.005785
Br -4.420026 -0.328420 0.079682
C -1.681108 -1.102524 -0.089601
C -0.308250 -0.868152 -0.148430
H 6.071592 -0.236498 1.464789
H 4.581092 0.383806 2.263089
H 4.697816 -1.361200 1.817762
H 4.687830 -2.219346 -0.631644
H 4.558640 -1.134370 -2.067410
H 6.057731 -1.121181 -1.069035
H 2.302052 -1.283456 0.376116
H -0.290060 2.516127 -0.022199
H -2.764578 2.129334 0.107131
H -2.071654 -2.119767 -0.124683
H 0.362026 -1.722963 -0.242419