23

O -1.225898 1.429500 -0.000147
C -1.228787 0.191226 -0.000332
C -0.151738 -0.712003 -0.000220
H -0.403740 -1.773448 -0.000224
C 1.236776 -0.354236 -0.000074
C 2.232088 -1.372497 0.000025
C 3.590998 -1.083313 0.000152
C 4.045193 0.240751 0.000192
C 3.089474 1.261052 0.000097
C 1.725187 0.983801 -0.000034
O -2.456124 -0.460199 -0.000147
C -3.599383 0.366953 0.000044
C -4.822782 -0.525322 0.000300
H 1.906088 -2.416676 -0.000003
H 4.310932 -1.906064 0.000225
H 5.112212 0.468225 0.000295
H 3.415395 2.305123 0.000124
H 0.998428 1.794122 -0.000107
H -3.591991 1.028001 0.882502
H -3.592322 1.027948 -0.882456
H -4.830606 -1.169715 -0.890223
H -4.830279 -1.169655 0.890870
H -5.740105 0.079255 0.000448