14

C -2.486714 0.684035 0.000046
N -1.057875 0.428415 0.000040
C -0.188661 1.479431 0.000002
C 1.148791 1.294615 -0.000007
C 1.668561 -0.082688 -0.000016
O 2.889884 -0.293408 -0.000149
N 0.764194 -1.099689 0.000015
C -0.564453 -0.908433 0.000179
O -1.394766 -1.823383 -0.000054
H -2.782718 1.253382 -0.893570
H -2.997361 -0.282090 -0.000345
H -2.782869 1.252716 0.894041
H -0.647513 2.471678 -0.000041
H 1.840142 2.135791 -0.000060