25

O -2.374596 2.044277 -0.036349
C -2.798900 0.918816 0.016164
N -2.004827 -0.227265 0.013159
C -0.660833 -0.185985 0.014957
C 0.552816 -0.153672 0.010623
C 1.986862 -0.092310 0.002835
C 2.756679 -1.268454 0.011368
C 4.146878 -1.194425 0.003164
C 4.787296 0.045516 -0.014565
C 4.027958 1.216833 -0.023542
C 2.637537 1.153582 -0.014334
C -2.778342 -1.469176 0.137152
C -4.188571 -1.023555 -0.267881
C -4.237007 0.451414 0.130473
H 2.254865 -2.236798 0.024462
H 4.735398 -2.113231 0.009929
H 5.876806 0.098756 -0.021548
H 4.522869 2.189091 -0.037796
H 2.040937 2.066666 -0.020532
H -2.361498 -2.240126 -0.522469
H -2.736666 -1.832118 1.176026
H -4.304318 -1.119978 -1.356226
H -4.963210 -1.630591 0.213939
H -4.538305 0.585371 1.182062
H -4.890556 1.078087 -0.487653