26

C -1.771169 -1.011849 1.592279
Si -1.688856 -0.016344 0.009732
O -0.218111 0.844668 -0.033742
C 1.027946 0.336047 -0.036644
C 1.441690 -0.941814 -0.001829
C 2.947101 -1.017655 -0.091911
C 3.389591 0.431711 0.209913
C 2.177466 1.306863 -0.145980
C -1.815510 -1.094509 -1.514220
C -2.981459 1.327369 -0.004871
H -1.621035 -0.355396 2.462506
H -2.763449 -1.479200 1.685238
H -1.015379 -1.808847 1.625847
H 0.793789 -1.818898 0.024730
H 3.387842 -1.738909 0.612917
H 3.264970 -1.334011 -1.101581
H 3.592364 0.525055 1.287007
H 4.303702 0.720663 -0.325105
H 2.225603 1.700337 -1.176338
H 2.044083 2.170621 0.521999
H -2.815223 -1.552627 -1.562273
H -1.674827 -0.488935 -2.422057
H -1.070780 -1.902532 -1.518225
H -2.856903 1.995985 0.859524
H -2.909337 1.929794 -0.922259
H -3.990493 0.891404 0.041345