19

C 3.244335 -1.573370 0.000000
C 2.364763 -0.328131 0.000000
C 0.877614 -0.665538 0.000000
C 0.000000 0.568147 0.000000
O -1.355793 0.156808 0.000000
C -2.277885 1.141653 0.000000
C -3.589403 0.900755 0.000000
H 3.046106 -2.192129 0.887932
H 3.046106 -2.192129 -0.887932
H 4.311911 -1.313477 0.000000
H 2.598620 0.291331 0.881676
H 2.598620 0.291331 -0.881676
H 0.627519 -1.273939 -0.884544
H 0.627519 -1.273939 0.884544
H 0.205493 1.186869 0.891935
H 0.205493 1.186869 -0.891935
H -1.876750 2.163001 0.000000
H -3.969609 -0.122081 0.000000
H -4.291236 1.732728 0.000000