16

O 3.388926 -0.540040 -0.000170
N 2.256447 0.008166 -0.000147
C 1.154165 -0.768743 -0.000100
H 1.376887 -1.832363 -0.000129
C -0.217287 -0.322868 -0.000006
C -0.662030 1.021802 0.000064
C -2.023556 1.324512 0.000153
C -2.993620 0.322227 0.000174
C -2.573260 -1.012129 0.000113
C -1.220647 -1.325985 0.000026
O 2.182719 1.262194 -0.000078
H 0.081361 1.813703 0.000049
H -2.330185 2.373458 0.000204
H -4.055840 0.571361 0.000241
H -3.310108 -1.818515 0.000130
H -0.912995 -2.374933 -0.000022