13

C -2.361168 -0.217813 -0.000136
C -1.028734 -0.354548 -0.000080
C -0.096348 0.772276 0.000029
C 1.241850 0.657407 0.000094
C 2.002669 -0.642143 0.000081
H -2.826096 0.772194 -0.000100
H -3.023924 -1.084704 -0.000159
H -0.598181 -1.361237 -0.000074
H -0.542565 1.772040 0.000034
H 1.830234 1.579518 0.000138
H 1.762820 -1.250851 0.885501
H 1.762902 -1.250784 -0.885407
H 3.085189 -0.467254 0.000138