28

N 1.752288 4.768177 0.173839
C 1.621214 3.608349 0.128497
C 1.483096 2.204003 0.074047
H 2.402823 1.608236 0.108379
N 0.258278 1.679070 0.007398
C -0.040977 0.402375 -0.021396
C -1.461559 0.019598 -0.050089
C -2.475910 0.991417 0.111710
C -3.821868 0.647995 0.076422
C -4.218202 -0.679679 -0.120636
C -3.232744 -1.652766 -0.287919
C -1.880766 -1.312149 -0.256010
C 1.006690 -0.663308 -0.001098
C 1.981175 -0.737326 -1.009279
C 2.972756 -1.717443 -0.982525
C 3.011144 -2.648972 0.056701
C 2.051157 -2.589351 1.067928
C 1.063553 -1.605106 1.038500
H -2.171763 2.026546 0.268582
H -4.577104 1.426136 0.209344
H -5.275689 -0.947314 -0.144029
H -3.516477 -2.694836 -0.451257
H -1.133911 -2.094453 -0.400995
H 1.954681 -0.011210 -1.825299
H 3.717066 -1.758819 -1.780165
H 3.785753 -3.417409 0.078260
H 2.074242 -3.310902 1.886836
H 0.313853 -1.562529 1.832572