16

C 1.909719 -0.953218 -0.012955
C 0.864213 -0.116538 -0.015451
C 1.051332 1.376262 0.040764
C -0.526212 -0.650460 -0.088524
C -1.631592 -0.079412 0.767897
C -1.648710 0.142123 -0.710134
H 1.768835 -2.035272 -0.070182
H 2.934082 -0.578802 0.045352
H 2.105262 1.630961 0.208911
H 0.732719 1.847614 -0.901745
H 0.455333 1.831378 0.846587
H -0.572437 -1.731368 -0.240886
H -2.343243 -0.787003 1.195996
H -1.393727 0.770144 1.410845
H -1.422377 1.145613 -1.074642
H -2.376945 -0.405812 -1.309823