15

N -3.454778 0.645031 0.000450
C -2.536537 -0.075543 -0.000208
C -1.431382 -0.924569 -0.000143
H -1.534215 -2.004121 -0.000095
N -0.152066 -0.411808 -0.000080
C 0.919499 -1.266027 -0.000003
C 2.217813 -0.801590 0.000054
C 2.483718 0.568870 0.000036
C 1.388648 1.430432 -0.000045
C 0.098863 0.934283 -0.000100
H 0.672794 -2.325956 0.000008
H 3.022677 -1.536384 0.000110
H 3.504264 0.948138 0.000079
H 1.517382 2.512547 -0.000068
H -0.778730 1.578081 -0.000171