27

C 1.359919 -0.510122 -0.063102
C 0.246435 -0.951107 0.888849
C -1.111218 -0.458383 0.454523
C -1.934575 -1.244668 -0.361219
C -3.170194 -0.770134 -0.802598
C -3.602539 0.504363 -0.434665
C -2.789978 1.299470 0.375400
C -1.555492 0.821140 0.814478
N 1.499137 0.944393 -0.105781
C 2.876928 1.295547 -0.483768
C 3.652283 -0.034955 -0.472773
C 2.757697 -0.958144 0.355274
H 1.141859 -0.938291 -1.065037
H 0.242978 -2.050671 0.942666
H 0.484308 -0.561511 1.890863
H -1.602922 -2.245440 -0.649728
H -3.799668 -1.400157 -1.433774
H -4.569882 0.876059 -0.776672
H -3.120395 2.297469 0.669206
H -0.915373 1.446373 1.440756
H 0.806582 1.377136 -0.709540
H 2.930806 1.778928 -1.472322
H 3.303202 2.007288 0.242825
H 3.736810 -0.431951 -1.495252
H 4.668358 0.067493 -0.069529
H 2.889802 -0.764967 1.432577
H 2.933978 -2.026542 0.171021