17

C -2.391444 -0.066833 0.045442
C -1.100642 -0.804008 -0.321804
Si 0.467155 -0.003931 0.361176
H 0.381551 -0.003305 1.856433
C 1.981621 -0.987682 -0.167253
C 0.608758 1.777794 -0.231428
H -3.282555 -0.578513 -0.347003
H -2.510037 0.011004 1.137227
H -2.397438 0.957086 -0.357659
H -1.136961 -1.844540 0.041916
H -0.995195 -0.869416 -1.418375
H 2.070352 -0.989916 -1.264352
H 2.902295 -0.552288 0.248352
H 1.913325 -2.031775 0.172062
H 1.530944 2.242905 0.147261
H 0.636125 1.812730 -1.331403
H -0.242327 2.385443 0.109333