10

C -0.334544 -1.119244 0.000179
C 0.983981 -0.712322 -0.000246
C 0.983979 0.712324 0.000201
C -0.334547 1.119243 -0.000080
N -1.117112 -0.000001 -0.000047
H -0.773870 -2.112814 0.000285
H 1.851676 -1.367257 -0.000440
H 1.851673 1.367260 0.000343
H -0.773874 2.112812 -0.000131
H -2.129040 -0.000002 -0.000048