18

C 1.867938 -1.223516 0.000361
Si 0.427325 -0.020031 0.000103
C 1.050680 1.752947 -0.000467
C -1.017775 -0.297715 -1.200137
C -1.952775 0.034626 -0.000159
C -1.018016 -0.296649 1.200301
H 2.500447 -1.070833 0.888165
H 1.513481 -2.264402 0.003903
H 2.496124 -1.075605 -0.891332
H 1.668731 1.951053 -0.889225
H 0.210418 2.462694 -0.003032
H 1.664717 1.952830 0.890677
H -1.155596 0.309886 -2.104561
H -1.102250 -1.361123 -1.474488
H -2.187237 1.110463 -0.000653
H -2.913120 -0.504606 -0.000018
H -1.102524 -1.359819 1.475564
H -1.156048 0.311737 2.104164