19

C -3.438060 -0.503094 0.000001
C -2.491069 0.440836 -0.000001
C -1.030060 0.231566 0.000000
C -0.180398 1.344723 0.000000
C 1.206638 1.195961 0.000000
C 1.793983 -0.071678 0.000000
C 3.288717 -0.251730 0.000001
C 0.942504 -1.188473 0.000000
C -0.438550 -1.043743 -0.000001
H -3.203075 -1.570061 0.000003
H -4.494783 -0.231226 0.000001
H -2.802257 1.490904 -0.000002
H -0.614905 2.347173 0.000000
H 1.843546 2.083417 0.000001
H 3.615754 -0.817019 0.885303
H 3.615753 -0.817029 -0.885295
H 3.807758 0.715317 -0.000005
H 1.376673 -2.191320 -0.000001
H -1.066695 -1.936366 -0.000002