10

O 2.057037 -0.013148 0.015363
C 0.830041 0.113672 0.003874
N 0.068793 1.177837 0.085790
C -1.304023 0.761458 -0.095862
C -1.266873 -0.762684 0.121140
O 0.080776 -1.089014 -0.125345
H -1.999661 1.249717 0.608520
H -1.680793 1.000741 -1.113022
H -1.532723 -1.023968 1.162884
H -1.925747 -1.328726 -0.553967