17

C -1.350298 -1.689154 -0.167929
C -0.358306 -0.676677 0.353750
H -0.508166 -0.509845 1.439014
O 0.965203 -1.128491 0.113223
C 1.795303 -0.001232 0.000256
O 0.966794 1.127138 -0.113716
C -0.357435 0.677139 -0.353819
H -0.507835 0.510487 -1.439032
C -1.347853 1.691044 0.168084
H -1.232711 -2.647396 0.355125
H -2.378210 -1.334342 -0.009996
H -1.189746 -1.853927 -1.242783
H 2.431735 0.124479 0.893499
H 2.432625 -0.127793 -0.892216
H -1.228977 2.649121 -0.354983
H -2.376314 1.337740 0.010354
H -1.186841 1.855582 1.242907