14

C 0.000000 2.491035 0.853210
C 0.000000 1.271879 -0.076424
C 0.000000 0.000000 0.563910
H 0.000000 0.000000 1.654762
C 0.000000 -1.271879 -0.076424
C 0.000000 -2.491035 0.853210
O 0.000000 -1.505935 -1.294686
O 0.000000 1.505935 -1.294686
H 0.000000 2.237137 1.920851
H 0.883140 3.108479 0.628403
H -0.883140 3.108479 0.628403
H 0.000000 -2.237137 1.920851
H -0.883140 -3.108479 0.628403
H 0.883140 -3.108479 0.628403