27

O 0.986992 2.170570 -0.570545
C 0.025315 1.520120 -0.154471
C -1.193442 2.328509 0.288352
C 0.021965 0.072926 -0.066719
C 1.269330 -0.671422 -0.247955
O 2.367276 -0.027251 0.217744
C 3.615989 -0.660200 -0.012775
C 4.701398 0.263700 0.492999
O 1.390585 -1.782123 -0.731476
C -1.156587 -0.748324 0.113498
O -2.331179 -0.082507 -0.074632
C -3.521333 -0.809537 0.186899
C -4.692393 0.114538 -0.062100
O -1.188928 -1.933614 0.403848
H -1.958932 2.329332 -0.499220
H -1.665765 1.926168 1.192208
H -0.849857 3.357157 0.455407
H 3.640427 -1.632487 0.504455
H 3.731490 -0.869989 -1.087734
H 4.665095 1.224872 -0.038002
H 4.573926 0.457067 1.567204
H 5.690711 -0.186619 0.335573
H -3.560885 -1.696634 -0.463528
H -3.511172 -1.177342 1.225195
H -5.638234 -0.411925 0.123469
H -4.645821 0.989306 0.601656
H -4.690396 0.468635 -1.102568