17

O -3.001960 1.433891 0.000220
C -2.485830 0.332694 -0.000008
O -3.088092 -0.819785 -0.000059
O -4.498828 -0.788415 0.000038
C -0.983650 0.165865 -0.000011
C -0.201770 1.325893 -0.000008
C 1.186057 1.242641 -0.000034
C 1.768128 -0.020907 -0.000055
N 3.237295 -0.122169 -0.000078
O 3.874875 0.905186 0.000008
O 3.726207 -1.228029 0.000034
C 1.018121 -1.193841 -0.000054
C -0.368560 -1.092457 -0.000035
H -0.706123 2.292121 0.000003
H 1.815789 2.130538 -0.000036
H 1.521173 -2.159063 -0.000068
H -0.984501 -1.990521 -0.000042