59

C -6.405883 -0.809302 0.000000
C -5.326094 0.265888 0.000000
C -3.912185 -0.307446 0.000000
C -2.824038 0.759882 0.000000
C -1.408522 0.188651 0.000000
C -0.314609 1.259492 0.000000
Si 1.432008 0.539302 0.000000
H 2.408546 1.675872 0.000000
C 1.708278 -0.495484 1.554633
C 1.364354 0.238705 2.853799
C 1.667695 -0.567802 4.113822
C 1.319562 0.168355 5.403103
C 1.634150 -0.629596 6.664989
C 1.282589 0.118482 7.945926
C 1.708278 -0.495484 -1.554633
C 1.364354 0.238705 -2.853799
C 1.667695 -0.567802 -4.113822
C 1.319562 0.168355 -5.403103
C 1.634150 -0.629596 -6.664989
C 1.282589 0.118482 -7.945926
H -6.319159 -1.454444 -0.887607
H -6.319159 -1.454444 0.887607
H -7.414426 -0.372302 0.000000
H -5.449372 0.918359 -0.880796
H -5.449372 0.918359 0.880796
H -3.784169 -0.960241 0.881793
H -3.784169 -0.960241 -0.881793
H -2.948993 1.412631 -0.881908
H -2.948993 1.412631 0.881908
H -1.288051 -0.467954 0.880825
H -1.288051 -0.467954 -0.880825
H -0.428053 1.916061 -0.880317
H -0.428053 1.916061 0.880317
H 1.109278 -1.419834 1.476452
H 2.763577 -0.819307 1.572546
H 1.915553 1.195046 2.900648
H 0.293618 0.510133 2.853184
H 1.114294 -1.522486 4.074336
H 2.738885 -0.835762 4.122464
H 1.866583 1.127262 5.433850
H 0.246610 0.430450 5.395549
H 1.088302 -1.587423 6.630927
H 2.706046 -0.889794 6.668040
H 0.208919 0.358291 7.978394
H 1.522920 -0.472752 8.840768
H 1.836323 1.067413 8.010519
H 2.763577 -0.819307 -1.572546
H 1.109278 -1.419834 -1.476452
H 0.293618 0.510133 -2.853184
H 1.915553 1.195046 -2.900648
H 2.738885 -0.835762 -4.122464
H 1.114294 -1.522486 -4.074336
H 0.246610 0.430450 -5.395549
H 1.866583 1.127262 -5.433850
H 2.706046 -0.889794 -6.668040
H 1.088302 -1.587423 -6.630927
H 0.208919 0.358291 -7.978394
H 1.836323 1.067413 -8.010519
H 1.522920 -0.472752 -8.840768