30

O 2.146225 -1.515937 1.792235
S 2.370975 -1.428067 0.333775
C 0.998484 -1.825980 -0.560231
H 1.252107 -2.263587 -1.524982
C -0.283061 -1.246472 -0.345382
C -1.301846 -1.418250 -1.330557
C -2.563003 -0.873187 -1.184775
C -2.887670 -0.120249 -0.045535
C -4.228912 0.515838 0.063763
F -5.217791 -0.303891 -0.329908
F -4.515068 0.902606 1.313724
F -4.350226 1.616191 -0.704289
C -1.915161 0.056985 0.942930
C -0.649336 -0.494728 0.809228
C 2.774149 0.313436 0.059600
C 2.576412 1.254607 1.066411
C 2.851254 2.600870 0.808696
C 3.326972 2.990191 -0.442089
C 3.533854 2.034973 -1.443241
C 3.257372 0.693769 -1.194760
O 3.516218 -2.176109 -0.220057
H -1.067904 -1.997065 -2.226767
H -3.312926 -1.029268 -1.964025
H -2.157923 0.630381 1.839709
H 0.077297 -0.367029 1.611034
H 2.221285 0.922538 2.042783
H 2.697216 3.345631 1.591229
H 3.541090 4.041513 -0.641016
H 3.912905 2.340936 -2.419682
H 3.412427 -0.063586 -1.966199