16

N 0.137938 1.876973 -0.068231
C 0.060406 0.484503 0.339408
C -1.123095 -0.233314 -0.331534
O -1.205011 -1.563926 0.113433
C -2.441680 0.460611 -0.043035
C 1.401713 -0.238821 0.025201
O 1.361110 -1.500716 0.019340
O 2.404429 0.464994 -0.165135
H -0.357474 2.473848 0.589800
H 1.124402 2.133346 -0.027165
H -0.089442 0.356295 1.433665
H -0.937894 -0.190034 -1.427830
H -0.251793 -1.840169 0.125503
H -2.427782 1.492630 -0.417530
H -3.269931 -0.080217 -0.523451
H -2.623935 0.474804 1.043281