28

N 0.374066 -0.009937 -0.156390
C 1.080529 -1.264186 0.043087
C 2.522323 -1.184282 -0.447156
C 3.256292 -0.004218 0.181858
C 2.475316 1.279371 -0.082212
C 1.044141 1.151120 0.422790
C -1.006895 -0.062892 -0.018267
C -1.787086 -1.140489 0.213082
C -3.249103 -0.764940 0.255839
C -3.259603 0.643719 -0.367749
C -1.845038 1.195724 -0.133343
H 1.059636 -1.553625 1.116727
H 0.544079 -2.048074 -0.509740
H 3.030895 -2.133526 -0.223357
H 2.515992 -1.066566 -1.543143
H 3.338417 -0.162052 1.271404
H 4.280906 0.072216 -0.210646
H 2.953392 2.142101 0.404652
H 2.452988 1.480775 -1.165724
H 0.475361 2.054272 0.167664
H 1.054696 1.073839 1.531788
H -1.426987 -2.151018 0.402168
H -3.897758 -1.464015 -0.294585
H -3.622924 -0.748510 1.296081
H -3.429387 0.552756 -1.451052
H -4.046054 1.294555 0.037402
H -1.785257 1.778031 0.802696
H -1.501710 1.854837 -0.945180