21

C 1.366863 -1.340808 0.764258
N 1.174436 -0.190049 -0.100797
C 2.393248 0.531370 -0.391496
C 0.007903 0.559357 -0.010471
N 0.065920 1.842337 -0.009295
N -1.157609 -0.200583 0.087582
C -1.353636 -1.346345 -0.784576
C -2.377415 0.486839 0.441058
H 1.952550 -1.066097 1.660861
H 0.401854 -1.735794 1.097413
H 1.911742 -2.136307 0.232844
H 3.161049 -0.186236 -0.713913
H 2.216053 1.259201 -1.190589
H 2.773302 1.082186 0.488915
H -0.866527 2.241588 -0.108499
H -1.861980 -2.161099 -0.246032
H -1.972854 -1.075022 -1.659122
H -0.389049 -1.711840 -1.151171
H -2.815947 1.049153 -0.406636
H -3.119708 -0.251282 0.774864
H -2.191492 1.187135 1.266006