22

C 1.689879 1.926195 -0.000049
N 1.059723 0.625990 -0.000068
C -0.301260 0.434458 -0.000030
C -0.549739 -0.963738 -0.000001
C -1.881959 -1.414980 0.000068
C -2.910409 -0.482337 0.000103
C -2.639688 0.902054 0.000075
C -1.335460 1.379781 0.000009
C 0.736378 -1.601326 -0.000130
C 1.686406 -0.607032 -0.000007
C 3.174199 -0.732348 0.000030
H 1.401204 2.499196 0.893363
H 2.778234 1.807626 -0.000203
H 1.400976 2.499328 -0.893302
H -2.101870 -2.484413 0.000064
H -3.947345 -0.822460 0.000139
H -3.470042 1.609991 0.000104
H -1.126742 2.450751 0.000000
H 0.943868 -2.668322 -0.000205
H 3.621796 -0.262333 -0.888708
H 3.621760 -0.262377 0.888810
H 3.450015 -1.793281 0.000008