35

C 4.187978 -1.538762 1.092684
Si 4.175830 0.000000 0.001578
C 4.187980 1.538765 1.092679
C 5.703746 -0.000002 -1.102047
C 2.625414 -0.000001 -1.083645
C 1.300143 0.000000 -0.309364
C 0.066526 -0.000001 -1.209116
Pb -1.838927 0.000000 -0.007722
C -1.855996 1.827818 1.304545
C -3.665781 -0.000005 -1.314983
C -1.855993 -1.827812 1.304553
H 3.322560 -1.553763 1.772427
H 4.157469 -2.453032 0.480199
H 5.100652 -1.570840 1.707320
H 5.100653 1.570845 1.707315
H 4.157471 2.453034 0.480191
H 3.322561 1.553769 1.772422
H 5.720345 -0.890744 -1.748449
H 5.720346 0.890738 -1.748452
H 6.623732 -0.000002 -0.497691
H 2.664987 0.881995 -1.747673
H 2.664987 -0.881999 -1.747671
H 1.270465 -0.879756 0.357906
H 1.270465 0.879758 0.357904
H 0.055468 0.887993 -1.859716
H 0.055469 -0.887997 -1.859714
H -1.867883 2.729112 0.678090
H -2.748950 1.815029 1.942713
H -0.957827 1.834874 1.935860
H -3.664364 -0.896058 -1.948549
H -4.563266 -0.000005 -0.683311
H -3.664367 0.896047 -1.948552
H -0.957823 -1.834865 1.935868
H -2.748947 -1.815022 1.942722
H -1.867879 -2.729109 0.678103