23

C -3.255528 0.355647 0.222243
C -2.202839 -0.550108 -0.402182
C -0.858069 -0.410429 0.268515
O 0.100912 -1.248908 -0.340107
C 1.349854 -0.566968 -0.361185
H 1.625094 -0.385257 -1.415385
C 2.429924 -1.373073 0.329123
C 1.032563 0.777922 0.319701
H 1.247757 0.687601 1.403515
C 1.741945 1.977438 -0.261275
O -0.365638 0.892109 0.131721
H -3.392579 0.125462 1.289405
H -2.953921 1.408826 0.139866
H -4.226532 0.234603 -0.275823
H -2.500840 -1.607048 -0.334568
H -2.057232 -0.316483 -1.467956
H -0.927976 -0.663780 1.349440
H 2.591985 -2.328040 -0.188165
H 3.379288 -0.817423 0.332995
H 2.140158 -1.582326 1.369189
H 1.491232 2.080676 -1.326392
H 1.444121 2.894450 0.263852
H 2.830148 1.860547 -0.162526