32

N -1.628357 2.950731 -0.941676
C -1.896760 1.638693 -0.594904
N -0.817960 0.855847 -0.430961
C -1.169285 -0.374548 -0.033674
N -0.334915 -1.437567 0.241349
C -1.158896 -2.479387 0.625977
N -2.422086 -2.169835 0.601454
C -2.457439 -0.848767 0.192338
C -3.566527 0.068816 -0.019670
O -4.756618 -0.228128 0.144558
N -3.179868 1.326538 -0.426591
C 1.106137 -1.465373 0.240224
H 1.393674 -2.491769 0.514476
O 1.615017 -0.548546 1.182613
C 2.498096 0.393292 0.585218
H 3.544104 0.091904 0.778332
C 2.225642 1.742722 1.213351
O 2.404197 1.699024 2.607541
C 2.237404 0.329268 -0.917764
H 1.425094 1.015054 -1.189797
O 3.429968 0.597421 -1.617200
C 1.775462 -1.128557 -1.101091
H 1.073418 -1.258521 -1.942067
O 2.904991 -1.951548 -1.230112
H -0.733355 3.102454 -1.391063
H -2.407402 3.442034 -1.362036
H -0.733953 -3.443731 0.907136
H 2.930501 2.479703 0.800766
H 1.198513 2.043119 0.936353
H 1.847021 0.976929 2.927536
H 3.211005 0.959134 -2.484401
H 3.590245 -1.399038 -1.639479