29

C -0.828496 2.510585 -0.592048
O -0.984581 1.463247 0.352622
C -0.988294 0.209900 -0.187612
O 0.176118 -0.134437 -0.786797
Si 1.640453 -0.238217 0.091130
C 2.703200 -1.383579 -0.927310
C 2.415390 1.458441 0.227940
C 1.223644 -0.939536 1.773329
C -2.047110 -0.608204 -0.088070
C -3.340568 -0.153660 0.525920
C -1.981548 -2.029531 -0.569509
H 0.088577 2.376322 -1.184359
H -1.695970 2.546528 -1.270607
H -0.764738 3.449352 -0.030175
H 2.852929 -0.972424 -1.936773
H 3.691097 -1.514364 -0.461239
H 2.231511 -2.372653 -1.022579
H 1.766178 2.139663 0.797474
H 3.383626 1.389294 0.747103
H 2.593402 1.892425 -0.767572
H 0.715383 -1.910650 1.673422
H 2.136743 -1.086291 2.369331
H 0.558811 -0.256939 2.323830
H -4.174390 -0.291112 -0.181682
H -3.582159 -0.756553 1.416969
H -3.301369 0.901139 0.821810
H -2.198161 -2.727430 0.256146
H -2.741805 -2.214700 -1.345969
H -0.995615 -2.273548 -0.983397