20

O 1.120551 0.030068 -1.820672
S 1.241780 0.721821 -0.525830
C -0.182176 1.244881 0.114488
H -0.032220 2.039882 0.843506
C -1.455016 0.557950 0.039909
C -2.543326 1.073289 0.784030
C -3.798884 0.475680 0.756542
C -4.029295 -0.666662 -0.014026
C -2.967923 -1.191660 -0.754404
C -1.708011 -0.599476 -0.735202
C 1.945596 -0.668308 0.503805
F 1.115308 -1.712178 0.519887
F 3.120187 -1.084147 0.034090
F 2.124658 -0.273128 1.762915
O 2.302415 1.727506 -0.363268
H -2.384131 1.965152 1.395134
H -4.608966 0.909172 1.347627
H -5.013172 -1.136976 -0.036794
H -3.121891 -2.085681 -1.363462
H -0.898993 -1.030361 -1.324074