69

B 0.052381 -0.070292 -1.872234
H 0.661779 -1.099008 -2.167263
H 0.705876 0.905999 -2.242164
H -1.079833 -0.060985 -2.336222
C -0.017442 -0.002886 -0.267358
N 1.053817 0.015625 0.556699
C 0.664750 0.075696 1.882581
C -0.691984 0.092324 1.883846
N -1.087230 0.047520 0.556403
C -2.459447 -0.000329 0.133277
C -3.151865 1.210800 -0.034976
C -4.475960 1.134355 -0.475190
C -5.076440 -0.097828 -0.727516
C -4.371383 -1.279765 -0.523959
C -3.045509 -1.256761 -0.077541
C -2.284249 -2.554181 0.139326
C -3.063460 -3.527712 1.027382
C -1.915903 -3.195588 -1.202399
C -2.471771 2.549363 0.206806
C -1.783248 3.039887 -1.072947
C -3.426406 3.613388 0.749152
C 2.414699 0.013343 0.100389
C 3.041664 1.248919 -0.121414
C 4.377721 1.225734 -0.533790
C 5.041748 0.018548 -0.733285
C 4.379671 -1.191864 -0.539127
C 3.045667 -1.221034 -0.123058
C 2.315398 -2.534011 0.102996
C 2.669505 -3.592354 -0.941603
C 2.572293 -3.053415 1.522543
C 2.312153 2.564253 0.093218
C 2.704350 3.182068 1.440165
C 2.543847 3.549854 -1.053713
H 1.384604 0.103270 2.694837
H -1.411712 0.131769 2.695440
H -5.047915 2.050722 -0.625279
H -6.109138 -0.135320 -1.077698
H -4.857973 -2.238538 -0.713298
H -1.346195 -2.315745 0.663043
H -3.984596 -3.872226 0.534161
H -2.450635 -4.415440 1.240990
H -3.341275 -3.062103 1.983995
H -1.315951 -2.506633 -1.813035
H -1.336790 -4.116923 -1.038562
H -2.824318 -3.459181 -1.766283
H -1.689840 2.392399 0.966251
H -2.532014 3.212097 -1.861953
H -1.258053 3.988350 -0.884037
H -1.057669 2.306058 -1.451326
H -3.980582 3.252800 1.627701
H -2.857313 4.507035 1.042338
H -4.154874 3.927664 -0.012809
H 4.903613 2.166027 -0.707647
H 6.084009 0.020017 -1.056252
H 4.908285 -2.128842 -0.719683
H 1.238191 -2.332687 0.002887
H 3.707936 -3.940136 -0.835444
H 2.016569 -4.468492 -0.819499
H 2.535825 -3.201726 -1.960536
H 2.022754 -3.990462 1.696104
H 3.645274 -3.251199 1.669843
H 2.254621 -2.324703 2.282284
H 1.232880 2.350041 0.119822
H 3.781764 3.407918 1.459780
H 2.154344 4.119357 1.610149
H 2.486927 2.499314 2.274301
H 2.289706 3.094441 -2.021373
H 1.913667 4.440169 -0.914015
H 3.589640 3.889531 -1.092937