28

C 3.232877 -0.035823 0.407383
C 2.586482 -1.154087 -0.402391
C 1.103841 -1.276776 -0.063357
C 0.399954 0.064020 -0.041632
C 1.093587 1.229327 0.001214
C 2.599769 1.304041 0.042152
N -0.975754 0.012991 -0.065246
C -1.785355 1.214974 -0.077250
C -3.209547 0.691437 -0.262462
C -3.158310 -0.677523 0.416617
C -1.777386 -1.201720 0.019206
H 3.077310 -0.235759 1.481516
H 4.319570 -0.007284 0.238422
H 2.697563 -0.929275 -1.476726
H 3.088212 -2.116267 -0.223307
H 0.602060 -1.937160 -0.787329
H 0.981593 -1.760148 0.922143
H 0.549220 2.175553 0.003438
H 2.915268 2.076431 0.762658
H 2.997929 1.637210 -0.935463
H -1.672263 1.780278 0.869402
H -1.475612 1.891967 -0.891685
H -3.967037 1.363862 0.160107
H -3.422988 0.568309 -1.335276
H -3.205986 -0.554721 1.509589
H -3.970026 -1.350547 0.111894
H -1.824535 -1.733173 -0.950543
H -1.375460 -1.907436 0.761003