26

H -0.924325 -0.392292 1.565891
C -0.765737 -0.319572 0.464947
C 0.713927 -0.164307 0.216776
C 1.183694 0.369414 -0.990860
N 2.472991 0.494590 -1.296290
C 3.369937 0.083121 -0.398498
C 3.018643 -0.459514 0.836299
C 1.665668 -0.580533 1.146812
C -1.379085 -1.566259 -0.206690
C -2.837018 -1.159273 -0.518837
C -2.929598 0.294993 -0.041988
N -1.556854 0.771919 -0.083749
C -1.363074 2.039160 0.581654
H 0.454861 0.719399 -1.729282
H 4.424274 0.193124 -0.670397
H 3.790390 -0.774873 1.538930
H 1.347670 -0.992433 2.108104
H -0.828702 -1.788615 -1.131342
H -1.301407 -2.445925 0.445459
H -3.030649 -1.225549 -1.597188
H -3.572008 -1.795890 -0.010339
H -3.581072 0.924286 -0.665824
H -3.322860 0.333071 0.998121
H -0.316401 2.363544 0.490768
H -1.999286 2.805616 0.117047
H -1.617581 1.987584 1.662626