15

O -2.650270 -1.749451 0.000000
C -2.269543 -0.594513 0.000020
O -3.001262 0.479707 -0.000010
O -4.401344 0.292037 -0.000033
C -0.796916 -0.249392 0.000010
C 0.116296 -1.305214 0.000030
C 1.479019 -1.024084 0.000025
Cl 2.626287 -2.333697 0.000049
C 1.955774 0.284985 0.000001
C 1.022866 1.320353 -0.000018
Cl 1.593863 2.964596 -0.000048
C -0.346571 1.073999 -0.000014
H -0.251592 -2.330757 0.000049
H 3.024877 0.492956 -0.000003
H -1.058364 1.897377 -0.000029