34

F 3.722482 -1.767076 -1.039741
B 2.783728 -1.935703 0.004206
F 2.154470 -3.189763 -0.151037
F 3.498933 -1.945659 1.223706
C 1.685487 -0.748482 -0.015950
C 0.332471 -0.877323 -0.014982
N -0.302240 0.381186 -0.004138
C -1.669262 0.619534 0.003960
O -2.339189 -0.524543 -0.020995
C -3.799054 -0.555912 -0.003789
C -4.347576 0.141483 -1.243852
C -4.109336 -2.045639 -0.043200
C -4.312975 0.068592 1.288805
O -2.146190 1.728206 0.030355
C 0.691544 1.364561 0.000547
C 1.933150 0.685627 -0.009580
C 3.121682 1.430397 -0.020278
C 3.048280 2.818951 -0.010793
C 1.803501 3.472223 0.004910
C 0.606078 2.760844 0.009229
H -0.283963 -1.771710 -0.019742
H -3.902932 -0.295159 -2.149738
H -5.435522 -0.007212 -1.286973
H -4.136800 1.216797 -1.220874
H -3.668262 -2.550314 0.827574
H -5.196450 -2.199922 -0.028861
H -3.699991 -2.496278 -0.958079
H -4.095758 1.142396 1.323849
H -5.400480 -0.076638 1.350409
H -3.848570 -0.423510 2.155520
H 4.084099 0.915785 -0.040058
H 3.964155 3.412486 -0.017429
H 1.771040 4.563084 0.012076
H -0.357412 3.264435 0.018868