42

C -3.952126 -1.587094 -1.422898
C -2.771389 -1.077634 -0.603192
C -1.796614 -2.236038 -0.349801
O -2.119275 -0.050978 -1.311207
B -1.429123 0.830447 -0.327044
C 0.179209 0.487629 -0.209219
C 0.805208 0.292163 1.033688
C 2.171078 0.039330 1.148537
C 2.956070 -0.032733 -0.004991
C 4.409887 -0.369118 0.108042
F 4.624764 -1.694692 0.162832
F 5.121597 0.082887 -0.931161
F 4.963892 0.142262 1.215727
C 2.370491 0.154736 -1.259327
C 1.003040 0.413957 -1.345786
C -1.613551 2.403623 -0.746938
C -1.057933 3.380642 0.288569
H -1.130217 2.588464 -1.726128
O -2.087183 0.494411 0.972527
C -3.172906 -0.367514 0.735566
C -4.454151 0.459771 0.569367
C -3.341309 -1.314945 1.919742
H -4.554035 -2.309471 -0.849708
H -4.599622 -0.757604 -1.735758
H -3.582715 -2.092010 -2.328459
H -1.362125 -2.543437 -1.313197
H -0.977925 -1.912941 0.308777
H -2.294966 -3.106488 0.102826
H 0.186160 0.334648 1.933623
H 2.633436 -0.101138 2.128366
H 2.986790 0.103340 -2.159301
H 0.558710 0.562487 -2.335033
H -2.691050 2.601696 -0.899376
H -1.203963 4.441323 0.024660
H -1.537147 3.215711 1.267284
H 0.023932 3.227238 0.437500
H -4.387222 1.092023 -0.327052
H -5.352852 -0.170907 0.492842
H -4.562452 1.115374 1.446661
H -3.643973 -0.742900 2.810229
H -4.115948 -2.072289 1.721348
H -2.397842 -1.827576 2.149820