27

O 0.439840 -1.651713 1.720045
S 0.660161 -1.570302 0.259035
C -0.772376 -1.437396 -0.604690
H -0.653530 -1.805539 -1.624179
C -1.788729 -0.460011 -0.322129
C -2.766051 -0.166737 -1.311121
C -3.782010 0.755234 -1.092391
C -3.879100 1.444433 0.121604
C -2.930580 1.173111 1.109906
C -1.913030 0.244040 0.905831
C 1.645046 -0.063035 0.061247
C 1.693586 0.893380 1.073279
C 2.400202 2.080771 0.862360
C 3.058261 2.299007 -0.346878
C 3.015471 1.327485 -1.352528
C 2.308250 0.145645 -1.150897
O 1.483891 -2.630994 -0.357608
H -2.708360 -0.686043 -2.271320
H -4.510116 0.943350 -1.885396
H -4.674225 2.171568 0.291346
H -2.985303 1.692314 2.070263
H -1.206359 0.033211 1.708637
H 1.192930 0.693029 2.021209
H 2.442564 2.833822 1.651163
H 3.610636 3.226071 -0.508106
H 3.538949 1.493951 -2.295513
H 2.266748 -0.624820 -1.923724