21

C -1.826084 1.421894 -0.000133
C -1.275243 0.200441 0.000003
Si 0.604325 -0.016543 -0.000020
C 1.103990 -0.987941 1.536262
C 1.103794 -0.989221 -1.535559
C 1.448726 1.663442 -0.000759
C -2.129961 -1.043740 0.000196
H -2.914215 1.561141 -0.000091
H -1.220175 2.333000 -0.000277
H 0.626884 -1.979501 1.552032
H 2.194247 -1.137176 1.560524
H 0.810662 -0.451741 2.451399
H 0.810273 -0.453848 -2.451117
H 2.194059 -1.138398 -1.559875
H 0.626759 -1.980830 -1.550374
H 1.177168 2.248583 0.890747
H 2.541543 1.532931 -0.000818
H 1.176974 2.247893 -0.892657
H -1.916323 -1.668207 -0.882095
H -1.916135 -1.668081 0.882532
H -3.203592 -0.803409 0.000291