10

C 0.264625 -0.769516 1.357984
S 0.264625 0.425665 0.000000
C 0.264625 -0.769516 -1.357984
O -1.119211 1.040822 0.000000
H 1.199932 -1.343108 1.352684
H 0.182448 -0.186637 2.283031
H -0.610291 -1.421769 1.238593
H -0.610291 -1.421769 -1.238593
H 0.182448 -0.186637 -2.283031
H 1.199932 -1.343108 -1.352684