24

C -2.763432 -0.212381 -1.261577
C -2.136841 0.386125 0.001324
C -2.763290 -0.217498 1.261836
C -0.627613 0.230309 0.000782
C 0.214873 1.344239 0.001244
C 1.604444 1.201143 -0.000288
C 2.199375 -0.062564 -0.002041
C 3.696348 -0.232915 0.002030
C 1.353850 -1.181625 -0.003153
C -0.030051 -1.038897 -0.001495
H -2.592159 -1.299127 -1.306041
H -3.850349 -0.043323 -1.272290
H -2.334361 0.235809 -2.169106
H -2.347798 1.467790 0.003520
H -2.591967 -1.304406 1.301939
H -2.334282 0.227100 2.171163
H -3.850222 -0.048587 1.273218
H -0.222100 2.345996 0.002116
H 2.237154 2.092025 -0.000628
H 4.032708 -0.736392 0.920764
H 4.025179 -0.851295 -0.846043
H 4.207894 0.736262 -0.061773
H 1.791577 -2.183210 -0.006004
H -0.657257 -1.934260 -0.002814