77

C -0.631069 7.420063 -0.254430
C -0.926657 6.133051 0.506920
C -0.250889 4.907382 -0.104799
C -0.531195 3.608940 0.655425
Si 0.269359 2.061796 -0.081077
C -0.448415 1.748332 -1.799450
C 2.126082 2.362428 -0.245899
C -0.033031 0.610149 1.090611
Si 0.016002 -1.129506 0.366158
H 0.042582 -2.110540 1.501307
C -1.534753 -1.502871 -0.635429
Si -3.199780 -1.157936 0.183237
C -3.141537 -1.620729 2.012525
C -3.670389 0.662672 0.010493
C -4.525223 -2.199384 -0.674838
C -5.960515 -1.923021 -0.221180
C -7.000994 -2.812312 -0.898824
C -8.425737 -2.513599 -0.447165
C 1.573217 -1.391973 -0.662384
Si 3.164101 -1.723647 0.300224
C 3.251064 -0.691932 1.879125
C 3.202316 -3.547443 0.775736
C 4.648757 -1.312085 -0.797729
C 6.012948 -1.671159 -0.204355
C 7.191159 -1.278311 -1.093623
C 8.541428 -1.654334 -0.495265
H 0.450419 7.623322 -0.277147
H -0.976926 7.348193 -1.296910
H -1.126454 8.287029 0.205125
H -0.599470 6.234150 1.555459
H -2.015408 5.960024 0.542564
H -0.579707 4.806507 -1.154459
H 0.838004 5.085959 -0.147352
H -0.181299 3.704288 1.699081
H -1.621514 3.441014 0.717748
H -0.283166 2.624913 -2.444529
H 0.028878 0.883247 -2.285193
H -1.531360 1.558892 -1.753174
H 2.551030 2.689260 0.716444
H 2.660086 1.453469 -0.562299
H 2.329174 3.147256 -0.990434
H 0.718735 0.685404 1.894347
H -1.014110 0.746213 1.577817
H -1.496520 -0.964800 -1.597713
H -1.497180 -2.580064 -0.877878
H -2.400443 -1.019503 2.561586
H -4.121801 -1.460046 2.486724
H -2.872043 -2.680954 2.137047
H -3.836753 0.918745 -1.047876
H -4.602496 0.870124 0.558316
H -2.893890 1.334480 0.405973
H -4.439671 -2.032981 -1.763677
H -4.279003 -3.264273 -0.512154
H -6.041475 -2.052215 0.873016
H -6.214362 -0.866328 -0.417186
H -6.920039 -2.686936 -1.991761
H -6.756538 -3.868410 -0.694343
H -8.532074 -2.658185 0.638849
H -8.698078 -1.470687 -0.670615
H -9.156201 -3.166127 -0.945939
H 1.407901 -2.262263 -1.321414
H 1.713939 -0.524362 -1.329239
H 2.416962 -0.940258 2.554268
H 4.188406 -0.895676 2.418941
H 3.209760 0.386364 1.663052
H 3.225683 -4.184511 -0.121924
H 4.086408 -3.784038 1.386908
H 2.307088 -3.813065 1.358781
H 4.514270 -1.827395 -1.765632
H 4.614218 -0.231182 -1.026113
H 6.134869 -1.185854 0.780540
H 6.058653 -2.757260 -0.010620
H 7.070254 -1.758570 -2.079348
H 7.152279 -0.191451 -1.277595
H 8.689107 -1.165147 0.479764
H 8.610772 -2.740967 -0.334188
H 9.373563 -1.357867 -1.149316