28

N -0.975970 0.012739 -0.064720
C -1.785029 1.214721 -0.077839
C -3.209287 0.691372 -0.263414
C -3.158519 -0.677184 0.416559
C -1.777282 -1.201475 0.020118
C 0.400192 0.063909 -0.040993
C 1.093359 1.228870 0.002076
C 2.599285 1.304099 0.042618
C 3.233080 -0.035728 0.406643
C 2.586415 -1.153786 -0.403208
C 1.104026 -1.276809 -0.063186
H -1.672164 1.780662 0.868464
H -1.474665 1.890792 -0.892789
H -3.967143 1.364017 0.158246
H -3.422299 0.567591 -1.336253
H -3.206562 -0.553606 1.509430
H -3.970333 -1.350336 0.112189
H -1.824249 -1.734057 -0.949196
H -1.375967 -1.906851 0.762714
H 0.548962 2.174971 0.004791
H 2.996484 1.638271 -0.934993
H 2.914546 2.075891 0.763802
H 4.319650 -0.006868 0.236817
H 3.078380 -0.236043 1.480782
H 2.696359 -0.928305 -1.477481
H 3.088620 -2.115949 -0.225009
H 0.982647 -1.760193 0.922467
H 0.602077 -1.937092 -0.787193