11

N -1.429606 -0.535606 0.251720
C -0.688601 0.607718 -0.262682
C 0.728788 0.571105 0.265735
O 1.334931 -0.607189 -0.223569
H -2.338263 -0.595284 -0.204105
H -0.923356 -1.376602 -0.025651
H -0.638141 0.649975 -1.368795
H -1.164959 1.541758 0.073566
H 1.275267 1.472792 -0.063728
H 0.698966 0.572672 1.369800
H 2.177162 -0.731494 0.227102