15

O -0.679044 -1.900776 0.000000
O 0.493769 -1.058513 0.000000
C 0.133609 0.300094 0.000000
C -0.679044 0.628533 1.255923
C 1.452188 1.070634 0.000000
C -0.679044 0.628533 -1.255923
H -0.058946 0.473714 2.153531
H -1.045335 1.666365 1.256007
H -1.519458 -0.074965 1.290152
H 2.042708 0.810048 -0.891682
H 1.278017 2.157227 0.000000
H 2.042708 0.810048 0.891682
H -1.519458 -0.074965 -1.290152
H -1.045335 1.666365 -1.256007
H -0.058946 0.473714 -2.153531