14

C 1.575174 1.211265 0.011815
N 0.824890 0.000000 -0.279963
C 1.575171 -1.211267 0.011817
N -0.405127 0.000003 0.355256
C -1.556561 -0.000002 -0.354109
O -2.667179 0.000001 0.131991
H 2.502058 1.208038 -0.576546
H 0.978944 2.087136 -0.273100
H 1.841417 1.292088 1.084565
H 1.841412 -1.292089 1.084568
H 0.978939 -2.087137 -0.273097
H 2.502056 -1.208044 -0.576543
H -0.453852 0.000006 1.377324
H -1.354594 -0.000004 -1.447297