15

O 2.268758 1.462566 -0.000094
C 1.775259 0.349561 -0.000005
O 2.411743 -0.786498 0.000060
O 3.824562 -0.714554 0.000028
C 0.280927 0.144902 0.000001
C -0.537863 1.278458 -0.000049
C -1.924841 1.156156 -0.000049
C -2.477304 -0.118861 0.000002
F -3.807923 -0.247937 0.000003
C -1.691106 -1.265787 0.000052
C -0.305815 -1.126672 0.000051
H -0.064607 2.260877 -0.000090
H -2.581600 2.026392 -0.000088
H -2.170948 -2.244789 0.000089
H 0.332405 -2.009697 0.000091