16

C 0.249742 0.752100 0.000020
C -0.985369 1.428958 0.000059
C -2.158275 0.690250 0.000052
C -2.131037 -0.722064 0.000006
C -0.932385 -1.418536 -0.000034
C 0.253107 -0.668387 -0.000026
N 1.563034 -1.075923 -0.000067
C 2.383122 0.025258 -0.000002
C 1.626246 1.168601 0.000002
H -1.015259 2.520167 0.000090
H -3.120682 1.204358 0.000079
H -3.071293 -1.275866 -0.000002
H -0.909707 -2.509216 -0.000073
H 1.877018 -2.037476 -0.000102
H 3.463684 -0.094794 -0.000002
H 2.004091 2.187210 0.000018