30

C -3.463759 -0.000171 0.045520
C -2.425772 0.772490 0.378733
C -1.222928 0.331929 1.149283
Si 0.263982 0.008949 0.000768
C 1.779421 -0.338266 1.075639
C 3.043159 -0.654084 0.269961
C -0.115968 -1.481173 -1.096034
C -0.289931 -2.794050 -0.327821
C 0.556767 1.525522 -1.087237
C 0.907048 2.797222 -0.308841
H -4.288162 0.383269 -0.558703
H -3.520716 -1.043787 0.370839
H -2.416063 1.811119 0.024507
H -0.922874 1.097069 1.884221
H -1.429996 -0.596795 1.705834
H 1.948643 0.533481 1.730027
H 1.536825 -1.175896 1.751579
H 3.906988 -0.859099 0.919418
H 2.898113 -1.536630 -0.372445
H 3.318472 0.184882 -0.387580
H -1.028740 -1.249537 -1.670693
H 0.693175 -1.576885 -1.840045
H -0.514277 -3.637450 -0.997397
H 0.620574 -3.053298 0.234399
H -1.113445 -2.726238 0.399997
H 1.358387 1.284914 -1.805963
H -0.350554 1.684575 -1.694762
H 0.114018 3.062742 0.407558
H 1.836412 2.670291 0.267535
H 1.049253 3.661481 -0.974299