41

H -1.864661 1.691248 0.000000
Ge -0.907358 0.461387 0.000000
C 0.957052 1.098572 0.000000
C 1.968189 -0.049320 0.000000
C 3.422368 0.417622 0.000000
C 4.418855 -0.735644 0.000000
C -1.229330 -0.609825 1.621473
C -0.780005 0.081768 2.909312
C -1.077323 -0.725553 4.171464
C -0.609953 -0.033305 5.446225
C -1.229330 -0.609825 -1.621473
C -0.780005 0.081768 -2.909312
C -1.077323 -0.725553 -4.171464
C -0.609953 -0.033305 -5.446225
H 1.113784 1.742366 -0.881579
H 1.113784 1.742366 0.881579
H 1.801241 -0.696124 0.880683
H 1.801241 -0.696124 -0.880683
H 3.590671 1.059420 -0.881176
H 3.590671 1.059420 0.881176
H 5.457303 -0.375466 0.000000
H 4.283560 -1.372133 0.887770
H 4.283560 -1.372133 -0.887770
H -2.304308 -0.849398 1.674280
H -0.704585 -1.573654 1.507639
H 0.305035 0.285092 2.863927
H -1.265818 1.070576 2.995513
H -2.162085 -0.917674 4.224930
H -0.596516 -1.714522 4.083304
H -1.095786 0.947638 5.561826
H -0.840911 -0.629709 6.340173
H 0.477400 0.135831 5.425840
H -0.704585 -1.573654 -1.507639
H -2.304308 -0.849398 -1.674280
H -1.265818 1.070576 -2.995513
H 0.305035 0.285092 -2.863927
H -0.596516 -1.714522 -4.083304
H -2.162085 -0.917674 -4.224930
H 0.477400 0.135831 -5.425840
H -0.840911 -0.629709 -6.340173
H -1.095786 0.947638 -5.561826