48

C 0.854438 5.181229 1.204701
C 0.609540 3.785220 1.765696
C 0.408924 2.731163 0.677531
C 0.161537 1.324587 1.225049
Sn -0.084845 -0.135829 -0.358925
C -0.260183 -2.091526 0.554735
C -1.154024 -3.122168 0.426201
C -0.734084 -4.162716 1.320259
C 0.387052 -3.689811 1.930726
O 0.678839 -2.452747 1.480909
C -1.934136 0.206478 -1.430861
C -3.135875 0.318362 -0.490621
C -4.454518 0.577070 -1.217913
C -5.646610 0.671244 -0.272645
C 1.717655 -0.130585 -1.562945
C 2.971914 -0.227426 -0.691818
C 4.272024 -0.259866 -1.494283
C 5.512775 -0.338715 -0.612066
H 1.752436 5.196488 0.568338
H 0.004861 5.511003 0.587417
H 0.996472 5.922093 2.003974
H 1.457873 3.481646 2.401907
H -0.277429 3.792926 2.421223
H -0.436974 3.040560 0.036678
H 1.296932 2.728932 0.019089
H 1.003674 1.004604 1.860391
H -0.736292 1.310671 1.863875
H -2.018163 -3.134967 -0.235008
H -1.202667 -5.129024 1.486017
H 1.058820 -4.105065 2.676856
H -1.823992 1.129505 -2.023057
H -2.082667 -0.612709 -2.152928
H -3.232897 -0.604715 0.108938
H -2.969002 1.130848 0.239498
H -4.362559 1.508968 -1.800854
H -4.620446 -0.227995 -1.953453
H -6.581803 0.866498 -0.816068
H -5.774353 -0.264813 0.291943
H -5.506071 1.482307 0.458081
H 1.671187 -0.976152 -2.267625
H 1.740976 0.788287 -2.171246
H 3.010007 0.627483 0.007609
H 2.922107 -1.130192 -0.056458
H 4.245009 -1.121167 -2.182642
H 4.319690 0.639647 -2.131025
H 5.569509 0.528307 0.063619
H 5.493411 -1.244796 0.012523
H 6.435346 -0.361002 -1.209138