18

C 3.234206 -0.599701 0.000016
C 1.789688 -0.168334 -0.000020
C 1.477165 1.216309 -0.000015
C 0.172457 1.681763 -0.000003
C -0.867560 0.738004 0.000005
N -2.239606 0.913559 0.000016
C -2.729059 -0.296603 0.000005
N -1.773311 -1.271562 0.000003
H -1.940397 -2.270647 0.000005
C -0.553333 -0.638116 -0.000003
C 0.765980 -1.109755 -0.000018
H 3.760319 -0.212429 0.885134
H 3.324319 -1.693502 -0.000458
H 3.760611 -0.211615 -0.884568
H 2.301909 1.932609 -0.000027
H -0.051048 2.749645 -0.000005
H -3.788589 -0.550949 0.000010
H 0.986026 -2.178485 -0.000029