11

O -2.256771 -1.004604 -0.000305
C -1.246658 -0.300762 0.000199
N 0.003732 -0.934257 0.000056
C 1.259157 -0.333460 0.000197
O 2.275719 -1.028099 -0.000186
C 1.175806 1.099578 0.000083
C -0.075795 1.682229 0.000070
N -1.258040 1.057061 0.000065
H -0.009923 -1.949871 -0.000147
H 2.092101 1.686720 -0.000038
H -0.128673 2.779631 -0.000026