16

C 0.285534 -0.728239 -0.000049
C -0.951605 -1.416278 -0.000026
C -2.144046 -0.709934 0.000066
C -2.144046 0.709934 0.000137
C -0.951605 1.416278 0.000115
C 0.285534 0.728238 0.000019
C 1.639014 1.156626 -0.000138
C 2.444353 0.000000 -0.000073
C 1.639014 -1.156626 -0.000053
H 1.987473 -2.190245 -0.000050
H -0.967499 -2.511051 -0.000054
H -3.095065 -1.248149 0.000090
H -3.095065 1.248149 0.000195
H -0.967499 2.511051 0.000134
H 1.987473 2.190245 -0.000206
H 3.537299 0.000000 -0.000096