22

N -1.251258 1.560537 -0.426839
C -1.412128 0.116899 -0.337429
C -0.485869 -0.488332 0.722025
C 0.972341 -0.289838 0.399602
C 1.626547 0.909431 0.716421
C 2.963690 1.109463 0.373468
C 3.674564 0.112167 -0.296591
C 3.035720 -1.085263 -0.621048
C 1.698187 -1.280517 -0.275155
C -2.908294 -0.233262 -0.056156
O -3.133592 -1.346512 0.456995
O -3.745193 0.621130 -0.418151
H -0.488270 1.799884 -1.057041
H -2.116476 1.911061 -0.838407
H -1.181297 -0.394141 -1.298263
H -0.724798 -0.019220 1.689942
H -0.721280 -1.557562 0.797711
H 1.069133 1.693971 1.232237
H 3.455946 2.048971 0.632215
H 4.721787 0.267097 -0.561550
H 3.582296 -1.873205 -1.142838
H 1.203510 -2.222047 -0.527701