21

C -3.772297 -0.322883 0.000005
C -2.301589 -0.076487 -0.000038
N -1.399801 -1.109513 0.000011
H -1.629635 -2.095900 0.000141
C -0.139378 -0.559195 0.000020
C 1.144252 -1.116602 0.000035
C 2.229791 -0.244186 0.000011
C 3.642846 -0.770432 0.000070
C 2.009003 1.155664 -0.000043
C 0.736024 1.706311 -0.000063
C -0.363296 0.834343 -0.000027
N -1.721124 1.096751 -0.000040
H -4.072828 -0.895892 0.888668
H -4.295255 0.638806 -0.000584
H -4.072719 -0.896944 -0.888011
H 1.293274 -2.197743 0.000069
H 4.194527 -0.419019 -0.884585
H 4.194304 -0.419413 0.885024
H 3.660581 -1.867751 -0.000163
H 2.878337 1.817366 -0.000068
H 0.583766 2.786631 -0.000108