14

N -0.441808 1.683122 -0.387770
C -0.496105 0.228172 -0.448910
C 0.526237 -0.475789 0.462365
C 2.006425 -0.207983 0.108706
O 2.332445 0.990789 -0.086716
O 2.766210 -1.195659 0.055376
C -1.906541 -0.286453 -0.052202
O -2.571803 0.445857 0.714502
O -2.227140 -1.414481 -0.482698
H -0.995548 1.930332 0.434357
H 0.533024 1.924643 -0.198232
H -0.312558 -0.115943 -1.483636
H 0.342392 -0.120730 1.494095
H 0.347545 -1.559887 0.444343