24

C 1.916723 -1.587316 1.133074
Si 2.606346 -0.040561 0.320163
H 2.677573 1.061049 1.327348
C 4.314399 -0.356713 -0.394315
C 1.431958 0.530968 -1.063954
C 0.034763 0.732716 -0.554383
C -0.346115 1.939463 0.050687
C -1.627125 2.104530 0.573329
C -2.560602 1.070615 0.511172
C -2.177747 -0.127282 -0.086826
Cl -3.326440 -1.438190 -0.178889
C -0.902092 -0.307641 -0.614957
H 2.589183 -1.940077 1.928811
H 0.928337 -1.397266 1.576862
H 1.810732 -2.394773 0.392107
H 4.270505 -1.155604 -1.149776
H 4.717284 0.547872 -0.872588
H 5.015064 -0.669525 0.393694
H 1.832774 1.465118 -1.486728
H 1.453141 -0.229682 -1.859953
H 0.373619 2.758803 0.109021
H -1.907143 3.051717 1.037110
H -3.566006 1.185073 0.915563
H -0.639385 -1.261666 -1.075613