15

H 3.641408 1.738946 0.000097
C 3.213655 0.738604 0.000101
C 1.780808 0.477990 0.000062
C 0.891167 1.566191 0.000072
C -0.485299 1.367017 0.000045
C -0.989947 0.067630 0.000004
Br -2.864130 -0.213751 -0.000034
C -0.129407 -1.029001 -0.000010
C 1.246080 -0.822294 0.000019
N 4.065306 -0.244028 0.000045
N 4.783498 -1.116978 -0.000159
H 1.284379 2.584298 0.000104
H -1.163495 2.220684 0.000054
H -0.530860 -2.042678 -0.000045
H 1.909164 -1.689733 0.000008