16

C 2.810840 -0.217206 -0.000013
C 1.577516 0.306929 -0.000012
C 0.360127 -0.501021 0.000000
C -0.911079 -0.053138 0.000001
C -1.304706 1.397601 -0.000001
C -2.066950 -1.014629 0.000018
H 2.963532 -1.300142 -0.000005
H 3.699405 0.416136 -0.000022
H 1.470871 1.395372 -0.000018
H 0.517784 -1.585669 0.000013
H -1.925932 1.619783 -0.882324
H -1.925632 1.619866 0.882514
H -0.451483 2.084625 -0.000175
H -1.731427 -2.059769 0.000088
H -2.705832 -0.850656 0.882896
H -2.705772 -0.850758 -0.882922