22

C -0.941284 -1.353888 3.166491
C -0.941284 -1.228757 1.657461
O 0.065956 -0.301250 1.269907
P -0.169856 0.712881 0.000000
O -1.559645 1.268711 0.000000
C 1.132695 1.811601 0.000000
H 0.885321 2.872334 0.000000
C 2.464321 1.400649 0.000000
N 3.578687 1.042731 0.000000
O 0.065956 -0.301250 -1.269907
C -0.941284 -1.228757 -1.657461
C -0.941284 -1.353888 -3.166491
H -1.690404 -2.088646 3.492119
H 0.045666 -1.679897 3.523430
H -1.174622 -0.384766 3.628727
H -0.736889 -2.206517 1.190597
H -1.922597 -0.878228 1.299875
H -0.736889 -2.206517 -1.190597
H -1.922597 -0.878228 -1.299875
H -1.690404 -2.088646 -3.492119
H -1.174622 -0.384766 -3.628727
H 0.045666 -1.679897 -3.523430