40

C -6.088974 -0.580964 -0.932559
O -5.213702 -0.974814 0.098680
C -4.033108 -0.328540 0.219692
C -3.197134 -0.747076 1.265818
C -1.964359 -0.139851 1.461440
C -1.524422 0.897897 0.626786
C -0.143855 1.477248 0.781731
C 0.884307 0.883855 -0.192935
N 2.219459 1.416746 0.083735
C 2.566137 2.717962 -0.434976
C 3.133267 0.372754 0.036459
C 4.519965 0.387088 0.037762
C 5.197485 -0.847237 -0.006501
C 4.496350 -2.044667 -0.070851
C 3.087267 -2.055282 -0.094076
C 2.420150 -0.842881 -0.027886
N 1.050727 -0.567648 -0.045185
C 0.211627 -1.430952 -0.855314
C -2.372186 1.313180 -0.401301
C -3.615948 0.713482 -0.616320
H -6.972501 -1.223660 -0.858135
H -6.395576 0.471115 -0.818919
H -5.627379 -0.715352 -1.923874
H -3.541032 -1.554954 1.912959
H -1.318232 -0.485060 2.271705
H -0.170245 2.566507 0.622500
H 0.240429 1.292917 1.794926
H 0.577022 1.125624 -1.239703
H 1.757159 3.429445 -0.225826
H 3.470490 3.091989 0.062930
H 2.745945 2.699646 -1.527042
H 5.074426 1.325897 0.062531
H 6.288442 -0.855397 -0.002748
H 5.037581 -2.990745 -0.117846
H 2.539470 -2.995360 -0.169470
H 0.248152 -2.457737 -0.467082
H -0.830507 -1.095655 -0.810261
H 0.539111 -1.442612 -1.913004
H -2.058157 2.123996 -1.063772
H -4.245697 1.068136 -1.430966