21

C 2.689308 1.467099 0.000033
C 1.382896 0.716430 0.000018
C 0.181279 1.416496 0.000057
C -1.009741 0.681548 0.000038
N -2.338660 1.039233 0.000043
H -2.716736 1.978685 0.000079
C -3.060996 -0.118603 0.000040
N -2.321086 -1.194904 -0.000018
C -1.018906 -0.727151 -0.000021
C 0.199723 -1.424197 -0.000061
C 1.393053 -0.712413 -0.000042
C 2.711318 -1.443128 -0.000084
H 3.296163 1.214549 0.883173
H 3.296141 1.214623 -0.883143
H 2.521357 2.551410 0.000081
H 0.173096 2.507662 0.000095
H -4.150410 -0.100167 0.000055
H 0.203217 -2.516041 -0.000104
H 3.315304 -1.183937 -0.883372
H 3.315315 -1.184018 0.883220
H 2.557167 -2.529551 -0.000132