14

C -2.171586 -0.024983 0.028597
C -0.679110 -0.096934 -0.010421
N 0.000917 -1.177550 0.066343
C 1.408715 -0.790661 -0.071636
C 1.438356 0.740105 0.124781
N 0.051360 1.068356 -0.192803
H -2.585960 -1.030518 0.152560
H -2.504182 0.613414 0.859997
H -2.551477 0.417056 -0.903388
H 2.044692 -1.325590 0.647001
H 1.758792 -1.064636 -1.082108
H 1.685783 1.006996 1.167223
H 2.148829 1.246625 -0.541254
H -0.340662 1.935842 0.157252