38

C 0.685285 -0.435036 -0.045824
N 2.010745 -0.769323 -0.139984
C 2.442295 -2.148620 -0.300839
C 3.961486 -2.037255 -0.386642
C 4.253933 -0.876266 0.564647
C 3.116972 0.103760 0.271501
C 0.408925 1.030285 0.042714
C 0.825202 1.890173 -0.980782
C 0.553148 3.255504 -0.908135
C -0.126925 3.775004 0.194583
C -0.531762 2.924550 1.224589
C -0.265324 1.558244 1.148923
C -0.306471 -1.374582 -0.037171
C -1.760000 -1.160969 -0.083704
C -2.385269 -0.069721 -0.720291
C -3.772702 0.054913 -0.738262
C -4.584139 -0.909650 -0.137926
C -3.984990 -2.012309 0.472765
C -2.597789 -2.134947 0.494829
H 2.139785 -2.763366 0.569604
H 1.979865 -2.596882 -1.194552
H 4.469648 -2.969703 -0.110732
H 4.260098 -1.772671 -1.412515
H 4.186709 -1.225160 1.606329
H 5.243533 -0.424664 0.419019
H 3.395321 0.799473 -0.538010
H 2.843206 0.708920 1.147800
H 1.351828 1.478820 -1.844877
H 0.871518 3.916265 -1.715948
H -0.338487 4.843814 0.252453
H -1.057843 3.327836 2.091332
H -0.588131 0.885916 1.946399
H -0.006010 -2.422715 0.019294
H -1.778195 0.683399 -1.223340
H -4.226316 0.912301 -1.239486
H -5.670274 -0.808682 -0.156815
H -4.602340 -2.783948 0.936838
H -2.140402 -3.002161 0.977231