10

C 0.027644 -0.220277 1.204656
N 0.027644 0.585247 0.000000
C 0.027644 -0.220277 -1.204656
H 0.965917 -0.794134 1.265529
H -0.025315 0.424095 2.093107
H -0.806514 -0.950025 1.257818
H -0.793415 1.186726 0.000000
H -0.025315 0.424095 -2.093107
H 0.965917 -0.794134 -1.265529
H -0.806514 -0.950025 -1.257818