47

C 1.942106 -0.270329 -1.581025
O 0.597611 -0.134987 -1.509603
Si -0.338422 0.035407 -0.113201
C -2.087645 -0.083916 -0.762659
C -3.174433 -0.005254 0.123355
C -4.485758 -0.082884 -0.343096
C -4.730021 -0.241922 -1.708793
C -3.661927 -0.323485 -2.601712
C -2.350034 -0.245033 -2.130818
C 0.010433 -1.345044 1.105791
C 0.944311 -1.200760 2.144674
C 1.220803 -2.256134 3.013720
C 0.562655 -3.476561 2.857349
C -0.371377 -3.638582 1.833302
C -0.645025 -2.579864 0.967414
C 0.021499 1.706625 0.651118
C 0.610611 2.716190 -0.126355
C 0.843119 3.984828 0.404436
C 0.484520 4.264164 1.723987
C -0.103505 3.273280 2.510939
C -0.330312 2.004137 1.977544
C 2.877974 0.056283 -0.677651
C 4.247618 -0.348794 -1.165578
C 4.020558 -0.612435 -2.671819
C 2.520639 -0.919977 -2.810993
H -2.999694 0.117001 1.196804
H -5.319355 -0.019882 0.358303
H -5.755864 -0.302652 -2.076488
H -3.850500 -0.448937 -3.669374
H -1.516125 -0.309674 -2.832968
H 1.461196 -0.247269 2.283461
H 1.950237 -2.125710 3.814654
H 0.776009 -4.303028 3.537523
H -0.889833 -4.591107 1.711644
H -1.385000 -2.716818 0.173860
H 0.897657 2.502286 -1.159679
H 1.305965 4.757472 -0.211781
H 0.665151 5.256286 2.141556
H -0.381630 3.488571 3.544037
H -0.781668 1.234670 2.611138
H 2.685219 0.508637 0.296110
H 5.013876 0.421363 -0.991692
H 4.592778 -1.258461 -0.642999
H 4.249719 0.305992 -3.232010
H 4.662996 -1.409284 -3.068320
H 2.303040 -2.001912 -2.788228
H 2.071997 -0.520553 -3.732688