42

C -2.019098 1.799506 1.679990
Si -2.012752 1.905846 -0.180119
O 0.930970 -0.526344 -1.314906
C 2.082299 -0.244250 -0.626708
C 2.082339 0.244006 0.626797
O 0.931084 0.525996 1.315133
Si -2.013173 -1.905699 0.180098
C -2.019356 -1.799226 -1.680006
C -3.688469 -1.796927 0.996773
C -0.587645 2.110353 -1.106007
C 3.340891 0.574734 1.378942
C 4.568107 -0.088284 0.758208
C 4.568048 0.088157 -0.758316
C 3.340807 -0.574899 -1.378962
C -0.588152 -2.110385 1.106080
C -3.687995 1.797171 -0.996914
H -2.566126 2.654286 2.105102
H -2.516760 0.879581 2.023000
H -0.984699 1.804064 2.047808
H -0.984933 -1.804211 -2.047748
H -2.566751 -2.653713 -2.105232
H -2.516558 -0.879036 -2.022978
H -4.205999 -0.858641 0.749007
H -4.327882 -2.623342 0.652246
H -3.583556 -1.864032 2.088053
H 0.248032 0.139957 -1.096395
H -0.615536 2.205461 -2.194930
H 0.394229 2.217462 -0.635059
H 3.470521 1.671518 1.414221
H 3.204394 0.250198 2.422283
H 5.486517 0.326022 1.198887
H 4.555146 -1.165734 0.993696
H 4.555037 1.165607 -0.993800
H 5.486440 -0.326119 -1.199060
H 3.470484 -1.671677 -1.414281
H 3.204213 -0.250344 -2.422285
H -0.616117 -2.205525 2.194998
H 0.393743 -2.217551 0.635185
H 0.248003 -0.140043 1.096298
H -3.583001 1.864242 -2.088188
H -4.205603 0.858925 -0.749162
H -4.327377 2.623636 -0.652451