49

C 5.275300 -2.752503 -1.247103
C 3.877659 -2.579920 -0.718528
C 2.889916 -3.540230 -0.976156
C 1.586432 -3.371660 -0.518176
C 3.534443 -1.441186 0.024977
C 2.241801 -1.255629 0.504223
C 1.283231 -2.227838 0.216812
S -0.371650 -1.986031 0.778808
N -1.028833 -0.936424 -0.387769
C -2.235370 -1.293021 -1.136072
C -3.499498 -0.694709 -0.556720
C -4.592775 -0.454340 -1.394654
C -5.783834 0.051027 -0.875556
C -5.890700 0.327822 0.487882
C -4.800272 0.097816 1.326335
C -3.609509 -0.411655 0.807750
C -0.550455 0.322237 -0.405245
C -0.074977 1.439593 -0.409231
C 0.477678 2.760882 -0.428596
C -0.122159 3.787729 -1.167620
C 0.426343 5.068561 -1.186188
C 1.584346 5.328899 -0.458452
C 2.198993 4.321362 0.288833
C 1.653476 3.035963 0.309156
O 2.177078 2.001922 1.000589
C 3.337873 2.223228 1.770565
O -1.128463 -3.219448 0.651037
O -0.326952 -1.271428 2.042733
H 5.392673 -2.207245 -2.196242
H 6.017154 -2.353202 -0.543054
H 5.500972 -3.809187 -1.438332
H 3.147123 -4.437070 -1.542849
H 0.815481 -4.118343 -0.711638
H 4.296691 -0.687515 0.233678
H 1.971039 -0.367654 1.078365
H -2.095810 -0.967429 -2.176406
H -2.296705 -2.389627 -1.137194
H -4.509600 -0.662024 -2.464149
H -6.629066 0.236406 -1.540384
H -6.820622 0.728229 0.894637
H -4.873008 0.317414 2.392606
H -2.757933 -0.579548 1.471649
H -1.029491 3.564278 -1.729979
H -0.052042 5.857920 -1.766343
H 2.022957 6.327747 -0.464113
H 3.103081 4.546661 0.852147
H 4.184229 2.531683 1.137065
H 3.164453 2.987116 2.544189
H 3.575677 1.269912 2.255528