22

F 3.303950 -0.221093 1.308935
B 2.797565 0.010619 0.004728
F 3.240306 1.290555 -0.404408
F 3.377263 -0.957020 -0.851638
C 1.179275 -0.086312 -0.027441
C 0.382083 1.054703 -0.027049
C -1.024636 0.953144 -0.012746
C -2.111048 1.896357 -0.006493
C -3.270116 1.161310 0.009412
N -2.982713 -0.182703 0.013422
C -3.937947 -1.266114 0.016200
C -1.615439 -0.336751 -0.002616
C -0.839864 -1.506972 -0.013711
C 0.539861 -1.354649 -0.028015
H 0.856570 2.040039 -0.041575
H -2.042191 2.980961 -0.009659
H -4.307054 1.492658 0.020357
H -3.863217 -1.861155 -0.906056
H -3.770142 -1.929896 0.876711
H -4.949369 -0.850124 0.086041
H -1.305112 -2.494825 -0.016520
H 1.165004 -2.252099 -0.048144