19

O -2.849490 1.324704 -0.000093
C -2.248658 0.264725 0.000060
O -2.776114 -0.927775 0.000074
O -4.192486 -0.996537 0.000029
C -0.744330 0.212041 0.000014
C -0.039719 1.423882 -0.000120
C 1.346083 1.441500 -0.000152
C 2.065297 0.235435 -0.000051
O 3.409884 0.341770 -0.000090
C 4.177081 -0.841143 0.000101
C 1.373344 -0.982876 0.000080
C -0.022250 -0.983189 0.000111
H -0.608997 2.354276 -0.000189
H 1.906047 2.377605 -0.000252
H 5.228060 -0.533843 0.000089
H 3.975795 -1.447465 0.897322
H 3.975855 -1.447721 -0.896959
H 1.908460 -1.931360 0.000159
H -0.560655 -1.931037 0.000213