18

O -3.791410 -0.235392 -0.874584
O -2.716496 -0.655419 -0.049888
C -1.787086 0.225963 0.186023
C -0.713763 -0.351428 1.107535
C 0.672828 -0.198840 0.532884
C 1.248367 1.070970 0.388544
C 2.521726 1.216406 -0.159203
C 3.242545 0.093596 -0.572145
C 2.678725 -1.174045 -0.433917
C 1.402042 -1.316447 0.113569
O -1.735343 1.366489 -0.232524
H -0.782785 0.205593 2.055713
H -0.936048 -1.404606 1.315987
H 0.676754 1.947013 0.698893
H 2.956270 2.212327 -0.264335
H 4.240372 0.207852 -0.999138
H 3.233827 -2.058428 -0.751959
H 0.965309 -2.312225 0.221065