14

C 0.005575 1.782279 -0.223286
Si -0.000129 -0.000214 0.379618
H 0.000011 0.000287 1.876269
C -1.546737 -0.886229 -0.223335
C 1.541262 -0.895911 -0.223335
H -0.884629 2.322866 0.130659
H 0.896753 2.317861 0.136112
H 0.008921 1.812907 -1.323573
H -1.571611 -0.904002 -1.323523
H -1.572120 -1.925699 0.135710
H -2.456429 -0.378905 0.130522
H 2.453781 -0.396371 0.134222
H 1.558469 -1.936782 0.132252
H 1.568051 -0.910008 -1.323570