39

C -1.784852 2.816011 0.584317
Si -0.088600 2.060736 0.358547
C 1.080960 3.275736 -0.439357
C 0.562418 1.369084 1.968454
O -0.200960 0.764409 -0.756045
C -0.467102 -0.516889 -0.397195
C 0.514293 -1.419580 -0.182344
C 1.966525 -1.197519 -0.219411
C 2.583902 -0.133275 -0.904906
C 3.968444 0.023662 -0.874546
C 4.771435 -0.873060 -0.168055
C 4.175804 -1.945121 0.498315
C 2.792933 -2.106552 0.466293
C -1.912475 -0.843997 -0.272779
C -2.375237 -1.883217 0.549317
C -3.736677 -2.162976 0.637694
C -4.659973 -1.407679 -0.088079
C -4.210819 -0.366018 -0.900017
C -2.849032 -0.083527 -0.988460
H -1.716757 3.691366 1.248746
H -2.488522 2.098584 1.031544
H -2.195811 3.149937 -0.380336
H 1.122214 4.204740 0.148817
H 0.739555 3.528713 -1.454200
H 2.098126 2.863046 -0.505839
H 0.684617 2.177152 2.705452
H 1.536802 0.879444 1.819932
H -0.137598 0.628577 2.384887
H 0.200146 -2.430222 0.083721
H 1.972728 0.562815 -1.476449
H 4.425874 0.855410 -1.414001
H 5.854314 -0.742289 -0.144364
H 4.791394 -2.660181 1.046694
H 2.333588 -2.948579 0.989197
H -1.668828 -2.462971 1.145303
H -4.079943 -2.968753 1.288327
H -5.726375 -1.625869 -0.014068
H -4.924860 0.231340 -1.469237
H -2.495883 0.731656 -1.620866