20

N -1.274816 0.000307 0.000167
C -0.779033 -0.131466 1.370050
C 0.779315 -0.131500 1.369893
N 1.274811 0.000145 -0.000107
C 0.779249 1.252559 -0.571374
C -0.779217 1.252675 -0.571156
C 0.779247 -1.121192 -0.798887
C -0.779561 -1.121069 -0.798762
H -1.178933 0.702622 1.966125
H -1.178601 -1.064394 1.795433
H 1.179385 0.702631 1.965795
H 1.178953 -1.064400 1.795272
H 1.179184 2.087607 0.023392
H 1.179622 1.350867 -1.591619
H -1.179862 1.351126 -1.591278
H -1.178873 2.087726 0.023798
H 1.179380 -1.024486 -1.819428
H 1.178725 -2.054219 -0.373677
H -1.179122 -2.054072 -0.373578
H -1.179826 -1.024218 -1.819236