15

C -0.006049 -0.779219 1.166897
C -0.006049 0.741003 1.196305
N 0.664453 1.229195 0.000000
C -0.006049 0.741003 -1.196305
C -0.006049 -0.779219 -1.166897
O -0.637692 -1.260976 0.000000
H 1.039440 -1.141509 1.205802
H -0.552839 -1.189419 2.026535
H -1.058861 1.087131 1.265706
H 0.525291 1.091918 2.092903
H 0.689478 2.245795 0.000000
H -1.058861 1.087131 -1.265706
H 0.525291 1.091918 -2.092903
H -0.552839 -1.189419 -2.026535
H 1.039440 -1.141509 -1.205802