31

O 0.157202 -1.874503 -1.005973
C -0.412065 -0.860041 -0.694868
C -1.826611 -0.684249 -0.235620
C -2.036929 0.672329 -0.000816
C -3.262448 1.155937 0.427559
C -4.287964 0.220555 0.616554
C -4.077278 -1.142067 0.380016
C -2.833557 -1.618308 -0.054561
C -0.756603 1.392358 -0.290003
N 0.136693 0.421115 -0.731026
C 1.541193 0.676461 -0.954393
C 2.310992 0.805806 0.365862
H 1.963443 1.716239 0.875890
N 2.062187 -0.356758 1.213608
C 2.990841 -1.398694 0.752594
C 4.184503 -0.687082 0.055496
C 3.827251 0.811079 0.111377
O -0.504380 2.565292 -0.174784
H -3.419096 2.220084 0.608597
H -5.268646 0.558626 0.953796
H -4.896669 -1.844720 0.536438
H -2.661675 -2.678888 -0.242497
H 1.927297 -0.162087 -1.552036
H 1.643884 1.599060 -1.541538
H 2.290224 -0.104669 2.172846
H 3.303079 -2.020406 1.602178
H 2.469444 -2.056366 0.041116
H 5.137893 -0.890793 0.560556
H 4.290092 -1.034185 -0.982150
H 4.108890 1.358353 -0.800013
H 4.329145 1.298427 0.959616