19

C 4.150740 -0.000178 0.008403
C 2.644285 0.000040 0.019318
C 1.926917 -1.203803 0.007384
C 0.533242 -1.208985 -0.015910
C -0.157234 0.000208 -0.021686
C 0.533318 1.209205 -0.014883
C 1.927099 1.203858 0.008337
S -1.951588 0.000088 -0.012832
N -2.246266 -0.010040 1.521659
H -3.269772 -0.011761 1.603811
O -2.353131 1.235628 -0.738123
O -2.352870 -1.225713 -0.754647
H 4.531173 -0.005339 -1.024938
H 4.552684 0.894116 0.502786
H 4.552470 -0.889769 0.511424
H 2.471970 -2.150747 0.014273
H -0.031853 -2.142293 -0.037658
H -0.031797 2.142505 -0.035668
H 2.472209 2.150758 0.016058