21

C 0.958808 -0.077807 -0.047995
C -0.521832 -0.030734 -0.020686
C -1.244344 -1.215328 0.166490
C -2.635548 -1.188905 0.191734
C -3.317209 0.019225 0.024471
C -2.601858 1.200021 -0.170950
C -1.207493 1.176585 -0.193962
N 1.631786 -1.145982 -0.258602
C 3.042526 -0.755261 -0.259918
C 3.078791 0.674533 0.322500
N 1.691756 1.090143 0.113159
H -0.693154 -2.147786 0.292920
H -3.192973 -2.114429 0.343585
H -4.407941 0.038146 0.044085
H -3.129919 2.144117 -0.312114
H -0.651030 2.098899 -0.369574
H 3.655221 -1.465825 0.311944
H 3.415231 -0.769277 -1.298370
H 3.331315 0.666564 1.396185
H 3.788489 1.331963 -0.195837
H 1.308927 1.794537 0.735180