18

O 2.360753 1.597729 -0.000197
C 1.246063 1.066586 0.000089
C 0.000001 1.728906 -0.000123
H 0.000002 2.816730 -0.000320
C -1.246062 1.066587 -0.000089
N -1.174599 -0.359180 -0.000065
C -2.398911 -1.138560 -0.000095
C 0.000000 -1.075582 0.000132
N 1.174598 -0.359179 0.000117
C 2.398910 -1.138559 0.000220
O 0.000000 -2.300764 0.000323
O -2.360753 1.597731 -0.000286
H -3.233578 -0.433879 -0.001309
H -2.445832 -1.784423 -0.887791
H -2.447129 -1.782720 0.888797
H 2.446507 -1.783645 -0.888020
H 3.233578 -0.433878 0.000191
H 2.446452 -1.783498 0.888569