21

C -1.472960 1.432431 -0.010012
C -0.924757 0.211405 -0.002733
C -1.808132 -1.012612 0.001269
C 0.587317 -0.026109 -0.002603
C 1.370658 1.271148 -0.214534
C 1.005018 -0.627609 1.351066
C 0.956354 -1.010238 -1.124577
H -2.559048 1.552023 0.006890
H -0.877406 2.345651 -0.033433
H -1.734560 -1.553573 -0.954579
H -1.521122 -1.721931 0.791855
H -2.859272 -0.735817 0.153500
H 1.188680 1.989598 0.597994
H 2.448694 1.053606 -0.234780
H 1.099631 1.751286 -1.166680
H 0.517813 -1.595120 1.538512
H 2.093054 -0.794295 1.367782
H 0.748260 0.054404 2.175315
H 0.624841 -0.631414 -2.103762
H 2.047776 -1.146390 -1.160186
H 0.501668 -1.998520 -0.965688