18

N 3.215102 -0.301358 -0.000606
C 1.856425 -0.112581 -0.000194
C 1.301044 1.184246 -0.000105
C -0.073206 1.375110 0.000021
C -0.953976 0.285918 0.000081
O -2.284823 0.576975 0.000206
C -3.191487 -0.495718 0.000238
C -0.420157 -1.004657 0.000025
C 0.964196 -1.195926 -0.000105
H 3.846367 0.484562 0.001068
H 3.608180 -1.229758 0.001144
H 1.965522 2.050861 -0.000151
H -0.493265 2.382384 0.000086
H -3.072604 -1.127787 0.896203
H -4.197833 -0.062181 0.000324
H -3.072730 -1.127732 -0.895782
H -1.067491 -1.881201 0.000086
H 1.359687 -2.213790 -0.000156