19

Cl -3.554630 -0.531044 -0.000156
C -1.875997 -0.036919 -0.000074
C -1.585397 1.341773 0.000145
C -0.267712 1.774853 0.000214
C 0.742240 0.805340 0.000085
C 0.453479 -0.586503 -0.000138
C 1.716743 -1.268436 -0.000188
C 2.698588 -0.304940 0.000041
C 4.183510 -0.448725 0.000362
N 2.107430 0.937786 -0.000030
C -0.888668 -1.007825 -0.000230
H -2.405390 2.059719 0.000239
H -0.032373 2.839676 0.000339
H 1.885896 -2.341861 -0.000344
H 4.626445 0.027502 -0.886660
H 4.625805 0.025290 0.888900
H 4.458059 -1.509680 -0.000829
H 2.610891 1.816501 0.000314
H -1.153355 -2.065597 -0.000391