23

C -3.261384 0.240283 -0.105989
C -2.110975 -0.752164 -0.005962
C -0.835200 -0.103718 0.491610
O 0.234353 -1.021879 0.557526
C 1.174509 -0.684656 -0.453624
H 0.868683 -1.147097 -1.410635
C 2.550872 -1.171944 -0.064736
C 0.967912 0.829901 -0.570221
H 1.199109 1.190087 -1.582842
C 1.702480 1.652627 0.474936
O -0.439810 0.918151 -0.398283
H -3.473942 0.696131 0.872967
H -3.010851 1.047790 -0.807407
H -4.179753 -0.249414 -0.456035
H -2.358148 -1.572851 0.684458
H -1.892269 -1.201701 -0.987750
H -0.984021 0.312425 1.507442
H 2.557220 -2.267730 0.004881
H 3.289441 -0.870105 -0.820776
H 2.848927 -0.761577 0.909451
H 2.785804 1.651872 0.290814
H 1.344305 2.690262 0.442936
H 1.519867 1.249754 1.482464