29

C 2.274052 -1.056233 -1.510170
Si 1.987792 -0.015427 0.021210
O 0.517283 0.823028 -0.106930
C -0.756358 0.353207 -0.093242
C -1.098110 -0.942655 -0.177480
C -2.527098 -1.419584 -0.110667
C -3.467812 -0.336060 0.413947
C -3.184065 0.995600 -0.276056
C -1.764749 1.463778 0.032978
C 1.992948 -1.048972 1.583178
C 3.257623 1.348674 0.124056
H 2.153619 -0.441433 -2.414849
H 3.303310 -1.447219 -1.500789
H 1.588433 -1.911945 -1.581717
H -0.318237 -1.698496 -0.301833
H -2.860698 -1.747747 -1.111915
H -2.585701 -2.314604 0.528950
H -4.515050 -0.637931 0.266683
H -3.315749 -0.215570 1.500049
H -3.296935 0.866500 -1.365750
H -3.909253 1.762335 0.032286
H -1.700384 1.874852 1.055781
H -1.453979 2.277397 -0.640735
H 2.995162 -1.477506 1.737766
H 1.751183 -0.423709 2.455728
H 1.271147 -1.876308 1.541243
H 3.236981 1.971265 -0.782383
H 3.060988 1.996142 0.991264
H 4.269236 0.929192 0.229446