29

O -0.580869 0.551708 1.466582
C -1.040552 -0.155211 0.549678
C -2.471728 0.103758 0.108065
C -3.074226 1.292618 0.534234
C -4.386014 1.597944 0.175904
C -5.119877 0.707219 -0.609077
C -4.532365 -0.486770 -1.030894
C -3.217214 -0.786154 -0.675336
C -0.332698 -1.158801 -0.133709
H -0.669296 -1.668603 -1.031420
S 1.285364 -1.501459 0.275497
O 1.766877 -2.543478 -0.653600
C 2.270429 -0.038932 -0.074372
C 2.386591 0.964824 0.886812
C 3.142790 2.099059 0.590014
C 3.775869 2.217703 -0.648914
C 3.656723 1.201048 -1.599060
C 2.900815 0.064730 -1.313800
O 1.472140 -1.751768 1.714701
H -2.484026 1.966520 1.156137
H -4.839923 2.532013 0.512421
H -6.149246 0.939887 -0.887585
H -5.104038 -1.192440 -1.636190
H -2.777670 -1.731061 -0.998348
H 1.872041 0.844577 1.839169
H 3.243022 2.893099 1.331864
H 4.368517 3.105671 -0.875088
H 4.158871 1.292094 -2.563622
H 2.799482 -0.748321 -2.034035