21

N 5.947208 -0.913181 -0.036052
C 4.847373 -0.549944 -0.015509
C 3.488723 -0.099274 0.010395
C 3.127996 1.051531 0.736924
C 1.816148 1.482861 0.756427
C 0.785811 0.796776 0.053931
C -0.543729 1.315472 0.119250
H -0.788457 2.147585 0.776787
S -1.894912 0.626379 -0.554347
O -1.653880 -0.082454 -1.819546
C -2.452315 -0.789302 0.520931
F -2.742600 -0.361784 1.745066
F -3.533620 -1.374245 0.016188
F -1.490866 -1.705579 0.621209
O -3.048494 1.527179 -0.451562
C 1.173454 -0.365238 -0.670838
C 2.486773 -0.796988 -0.689168
H 3.891566 1.604280 1.286805
H 1.556120 2.376627 1.326690
H 0.419223 -0.924477 -1.221358
H 2.751046 -1.692485 -1.254375