12

F -1.827391 -0.704068 -1.118396
B -1.313068 -0.008895 0.000270
F -1.793848 1.319771 -0.045936
F -1.831381 -0.625130 1.162420
C 0.304483 -0.018481 0.000589
C 1.129064 1.066569 0.000328
O 2.441293 0.710530 0.000581
C 2.478929 -0.638733 0.000565
C 1.213784 -1.142583 0.000599
H 0.934634 2.136107 -0.000688
H 3.466153 -1.093069 -0.000107
H 0.950229 -2.198604 -0.000477