26

C 3.652690 -1.588424 -0.047196
C 2.464120 -0.750629 0.365062
O 1.743104 -1.042268 1.297498
N 2.240160 0.345998 -0.429803
C 1.161618 1.246484 -0.267360
C 1.375393 2.569004 -0.324317
C -0.198414 0.655847 -0.152523
C -1.203003 1.298535 0.581035
C -2.490652 0.770778 0.636217
C -2.817611 -0.414423 -0.034256
C -4.218130 -0.966434 0.006992
C -1.805414 -1.059093 -0.756698
C -0.516488 -0.537029 -0.813763
H 3.973132 -2.192758 0.807721
H 3.345739 -2.261683 -0.861033
H 4.486849 -0.973321 -0.408016
H 2.980416 0.626087 -1.062662
H 0.538682 3.266933 -0.326956
H 2.387183 2.970032 -0.405037
H -0.966592 2.210010 1.133416
H -3.256613 1.283947 1.222354
H -4.853239 -0.472076 -0.744575
H -4.228109 -2.043227 -0.206755
H -4.682736 -0.800337 0.988524
H -2.031827 -1.989072 -1.283258
H 0.256510 -1.056068 -1.384234