48

C 0.902417 -3.989508 0.572758
C -0.119944 -3.170021 0.835438
C -0.012025 -1.820084 1.468641
Si -0.049223 -0.429325 0.164795
C -0.067050 1.230246 1.068230
C -0.059263 2.445939 0.137434
C -0.059497 3.783220 0.875029
C -0.055079 4.982963 -0.065048
C 1.487767 -0.563929 -0.922662
C 2.805965 -0.290787 -0.194192
C 4.037537 -0.415448 -1.088438
C 5.341643 -0.140497 -0.348776
C -1.589084 -0.610204 -0.913732
C -2.915785 -0.494441 -0.159483
C -4.143744 -0.631560 -1.057058
C -5.457773 -0.511171 -0.294671
H 0.750688 -4.945781 0.068427
H 1.926185 -3.727543 0.858708
H -1.126282 -3.477815 0.524602
H -0.839447 -1.647274 2.175998
H 0.930376 -1.724652 2.032748
H -0.954632 1.264800 1.724525
H 0.806400 1.268927 1.743338
H 0.824602 2.404048 -0.524603
H -0.936665 2.408415 -0.532986
H -0.942460 3.826063 1.534751
H 0.819995 3.823448 1.539543
H -0.054522 5.932748 0.488108
H 0.834172 4.970440 -0.713610
H -0.941433 4.973788 -0.717599
H 1.504590 -1.575814 -1.364611
H 1.377204 0.136199 -1.769736
H 2.785408 0.722601 0.245516
H 2.913453 -0.984921 0.658550
H 4.060303 -1.428003 -1.525444
H 3.933491 0.281264 -1.937132
H 6.212860 -0.233359 -1.012519
H 5.347228 0.876003 0.073440
H 5.476139 -0.846811 0.484502
H -1.542475 0.155484 -1.708613
H -1.534318 -1.583322 -1.433663
H -2.966266 -1.262860 0.633064
H -2.963911 0.477483 0.363616
H -4.095108 0.138317 -1.845467
H -4.098602 -1.603236 -1.577181
H -5.537515 -1.290528 0.478503
H -5.531594 0.464475 0.209638
H -6.325249 -0.610340 -0.962363