71

C -3.105913 -0.561703 -2.266680
Si -2.943509 -1.893431 -0.945479
C -2.912672 -3.579028 -1.780631
C -1.362939 -1.719845 0.076813
Si 0.117251 -0.971183 -0.816304
H 0.208628 -1.617433 -2.167451
C -0.086415 0.888831 -1.056559
Si -0.710180 1.916398 0.396966
C -2.571707 1.759871 0.632044
C 0.180092 1.431016 1.986525
C -0.312710 3.735122 0.045500
C -1.290905 4.738878 0.109834
C -0.975685 6.076674 -0.139105
C 0.332534 6.437387 -0.458832
C 1.322936 5.455651 -0.527604
C 0.998759 4.122636 -0.278117
C 1.718084 -1.327485 0.113576
Si 3.311429 -1.294823 -0.890672
C 3.370067 -2.768089 -2.058242
C 3.459789 0.307046 -1.872751
C 4.779840 -1.394358 0.300856
C 5.742473 -2.410104 0.204595
C 6.821372 -2.473674 1.089242
C 6.956930 -1.514805 2.092347
C 6.011202 -0.493554 2.206394
C 4.936676 -0.438524 1.319201
C -4.435748 -1.785383 0.213506
C -5.418407 -0.793618 0.073737
C -6.498789 -0.714733 0.955231
C -6.616288 -1.633871 1.997250
C -5.650220 -2.629950 2.154677
C -4.573306 -2.699799 1.271595
H -4.037466 -0.707801 -2.834956
H -3.119253 0.451301 -1.838946
H -2.266852 -0.624087 -2.976965
H -2.012254 -3.675455 -2.407083
H -2.897815 -4.388538 -1.035453
H -3.795711 -3.717013 -2.422067
H -1.559313 -1.132417 0.989251
H -1.080508 -2.731594 0.415412
H 0.904615 1.283785 -1.337171
H -0.747838 1.086354 -1.916291
H -2.883447 0.715757 0.786249
H -2.889257 2.333477 1.516725
H -3.118110 2.153478 -0.239198
H 1.267732 1.569934 1.882572
H -0.162882 2.063260 2.819173
H -0.006695 0.379726 2.255402
H -2.323543 4.479140 0.357328
H -1.755012 6.838956 -0.082647
H 0.581049 7.481920 -0.655189
H 2.349347 5.730354 -0.777867
H 1.791132 3.369744 -0.341610
H 1.804782 -0.611144 0.947546
H 1.642377 -2.330291 0.568937
H 2.522086 -2.732699 -2.758112
H 4.298028 -2.770114 -2.649869
H 3.313374 -3.716268 -1.502055
H 3.405209 1.184614 -1.209648
H 4.426998 0.339882 -2.396415
H 2.661819 0.393368 -2.626635
H 5.652128 -3.171840 -0.574188
H 7.557515 -3.274106 0.994762
H 7.798531 -1.561565 2.785685
H 6.113061 0.259989 2.989559
H 4.204064 0.368133 1.427422
H -5.340601 -0.061766 -0.734894
H -7.250503 0.066441 0.827948
H -7.459449 -1.575093 2.687757
H -5.737462 -3.351777 2.968808
H -3.822664 -3.483594 1.414589