29

C -4.537448 1.058445 -0.500228
Si -3.208270 -0.203451 -0.130655
C -3.099980 -0.571921 1.698807
C -3.432090 -1.742184 -1.158751
O -1.699893 0.412682 -0.647781
C -0.812977 1.123463 0.077263
C -1.107570 2.242311 0.750848
C 0.556760 0.537518 0.050957
C 1.705371 1.320178 -0.092046
F 1.621337 2.638545 -0.198498
C 2.976817 0.755803 -0.140729
F 4.043639 1.525398 -0.280399
C 3.124323 -0.623750 -0.050992
F 4.327344 -1.165973 -0.089469
C 1.998935 -1.429844 0.088992
F 2.135042 -2.741703 0.192063
C 0.737845 -0.846583 0.139748
F -0.299061 -1.658062 0.310880
H -4.429399 1.959909 0.120488
H -4.504310 1.359726 -1.557680
H -5.530238 0.627295 -0.299197
H -4.030169 -1.054216 2.035733
H -2.261340 -1.252252 1.905339
H -2.958131 0.345572 2.287723
H -3.429387 -1.493054 -2.230206
H -2.612217 -2.448961 -0.965795
H -4.385388 -2.238312 -0.924417
H -0.340054 2.765806 1.317906
H -2.119060 2.650884 0.727119