32

C -5.230455 -0.771193 0.142728
N -4.300483 0.334568 0.093493
C -4.788049 1.695312 0.070308
C -2.954244 0.090527 0.019423
C -2.441860 -1.230225 0.005295
C -1.074769 -1.460294 -0.064139
C -0.145305 -0.414727 -0.114609
C -0.650777 0.891674 -0.111552
C -2.014933 1.148734 -0.050137
C 1.319684 -0.769816 -0.189819
O 1.631142 -1.945205 -0.442610
C 2.243891 0.279094 0.050064
S 3.898023 -0.102317 -0.067541
C 4.646473 1.217744 -1.053603
C 4.652807 0.287301 1.534644
H -6.249818 -0.380317 0.227281
H -5.177556 -1.398424 -0.763800
H -5.041925 -1.422297 1.012390
H -4.394568 2.284926 0.915194
H -4.510704 2.217915 -0.861172
H -5.880594 1.687476 0.142894
H -3.117666 -2.082789 0.046062
H -0.691811 -2.481819 -0.082016
H 0.027381 1.743975 -0.178719
H -2.352605 2.183593 -0.060928
H 1.979231 1.286633 0.364632
H 4.377782 2.189585 -0.621417
H 5.733903 1.076313 -1.060619
H 4.239447 1.117863 -2.065659
H 4.243775 -0.432753 2.251798
H 5.740207 0.169254 1.450521
H 4.386615 1.312821 1.819029