27

C 3.287091 1.219441 -0.082572
Si 1.889319 -0.015436 -0.002754
C 1.982693 -1.218060 -1.429878
C 1.832081 -0.871174 1.658141
O 0.503214 0.979859 -0.172772
C -0.768848 0.586538 -0.061476
C -1.807374 1.430934 0.051847
C -3.231572 0.939742 0.071747
C -3.280992 -0.528695 -0.347138
C -2.144675 -1.283164 0.320752
O -0.882584 -0.765034 -0.090046
H 3.274056 1.763869 -1.038231
H 3.211898 1.952034 0.734252
H 4.256105 0.705582 0.005240
H 2.932267 -1.773642 -1.397871
H 1.151975 -1.935381 -1.390482
H 1.934678 -0.679231 -2.388019
H 1.698123 -0.134795 2.464743
H 1.003860 -1.592011 1.700409
H 2.774715 -1.409194 1.840706
H -1.580628 2.495613 0.097926
H -3.675198 1.058077 1.075902
H -3.852792 1.546190 -0.605560
H -4.239651 -0.993702 -0.079010
H -3.161486 -0.617439 -1.438487
H -2.218981 -1.195857 1.418812
H -2.134863 -2.345985 0.052224