35

C 1.765647 -1.256853 3.072190
Sn 0.000000 0.002836 3.084702
C -1.765647 -1.256854 3.072191
C 0.000000 1.244754 4.860182
C 0.000000 1.221692 1.283798
C 0.000000 0.384555 0.000000
C 0.000000 1.221692 -1.283798
Sn 0.000000 0.002836 -3.084702
C -1.765647 -1.256854 -3.072191
C 0.000000 1.244754 -4.860182
C 1.765647 -1.256853 -3.072190
H 1.773413 -1.899046 2.179975
H 2.676432 -0.641536 3.065853
H 1.786062 -1.900493 3.962928
H -1.786062 -1.900494 3.962928
H -2.676432 -0.641537 3.065853
H -1.773412 -1.899047 2.179976
H 0.891851 1.886665 4.879764
H -0.891851 1.886665 4.879764
H 0.000000 0.620155 5.764489
H -0.883657 1.881048 1.302993
H 0.883656 1.881049 1.302993
H 0.879383 -0.285310 0.000000
H -0.879383 -0.285310 0.000000
H -0.883657 1.881048 -1.302993
H 0.883656 1.881049 -1.302993
H -2.676432 -0.641537 -3.065853
H -1.786062 -1.900494 -3.962928
H -1.773412 -1.899047 -2.179976
H 0.891851 1.886665 -4.879764
H 0.000000 0.620155 -5.764489
H -0.891851 1.886665 -4.879764
H 1.773413 -1.899046 -2.179975
H 1.786062 -1.900493 -3.962928
H 2.676432 -0.641536 -3.065853