19

C -2.432051 0.448382 0.395955
C -2.258855 -0.972907 -0.136914
N -0.888414 -1.467443 -0.071152
C 0.040139 -0.605342 -0.008438
S 1.762671 -1.086345 -0.026507
C 2.291719 0.633180 0.284597
C 1.150565 1.489172 -0.252615
N -0.062917 0.767599 0.068856
C -1.361767 1.360405 -0.190466
H -3.432039 0.832808 0.153063
H -2.331930 0.447597 1.492319
H -2.905500 -1.664871 0.423324
H -2.598967 -1.023289 -1.186448
H 2.428475 0.781721 1.363608
H 3.237867 0.824824 -0.233613
H 1.138098 2.479813 0.224838
H 1.252916 1.633109 -1.345052
H -1.518582 1.494295 -1.278208
H -1.392242 2.357076 0.273633