38

O -2.007586 0.739986 2.439371
C -2.285754 0.295567 1.330896
C -1.694127 -0.807601 0.671371
C -0.529897 -1.517022 1.309448
C 0.821017 -0.989059 0.871213
C 1.216291 0.315929 1.197479
C 2.435181 0.842481 0.784704
C 3.333487 0.073298 0.006000
N 4.546662 0.583754 -0.404902
C 4.886720 1.953450 -0.101886
C 5.393860 -0.203800 -1.267597
C 2.931308 -1.236569 -0.333724
C 1.704735 -1.743006 0.097147
C -2.209561 -1.296322 -0.554780
O -3.238435 -0.563367 -1.124501
C -3.358580 0.793508 -0.746067
C -2.248631 1.624700 -1.385512
C -4.733882 1.245743 -1.189718
O -3.321149 0.928007 0.661094
O -1.874914 -2.310259 -1.152689
H -0.617900 -1.410883 2.402336
H -0.584225 -2.589800 1.071288
H 0.534177 0.932839 1.790048
H 2.689938 1.862275 1.070212
H 4.921085 2.134813 0.985565
H 5.878075 2.177422 -0.510621
H 4.166550 2.670567 -0.535226
H 4.896655 -0.460228 -2.220428
H 6.301644 0.363673 -1.499762
H 5.699089 -1.149278 -0.788079
H 3.576284 -1.870370 -0.940777
H 1.425696 -2.760706 -0.190106
H -2.296745 1.525869 -2.478070
H -2.377956 2.681193 -1.115485
H -1.263360 1.285521 -1.038455
H -5.491755 0.618345 -0.702792
H -4.893832 2.293900 -0.906558
H -4.826385 1.145840 -2.278828