19

C 2.821653 0.893573 0.520842
C 2.575565 -0.451592 -0.094888
C 1.395709 -1.024818 -0.379021
C 0.044760 -0.452772 -0.201243
C -0.237128 0.908528 -0.401358
C -1.529346 1.402680 -0.227471
C -2.566951 0.547127 0.143001
C -2.306089 -0.812211 0.324852
C -1.016118 -1.305543 0.146234
H 1.941413 1.269786 1.058633
H 3.664058 0.837383 1.224630
H 3.096586 1.640221 -0.242238
H 3.469894 -1.044719 -0.312164
H 1.414636 -2.050670 -0.760950
H 0.558080 1.581579 -0.724063
H -1.728054 2.463010 -0.392853
H -3.577499 0.936230 0.277069
H -3.113557 -1.491575 0.602977
H -0.817882 -2.371079 0.283264