17

O -3.631686 0.221038 0.000000
O -2.323879 0.782872 0.000000
C -1.333335 -0.060904 0.000000
C 0.000000 0.681585 0.000000
C 1.175618 -0.282629 0.000000
C 2.494968 0.463401 0.000000
N 3.645918 -0.490566 0.000000
H 3.630735 -1.102510 0.825433
H 3.630735 -1.102510 -0.825433
H 4.549342 -0.002338 0.000000
O -1.401926 -1.274897 0.000000
H 0.031340 1.342289 -0.880373
H 0.031340 1.342289 0.880373
H 1.112099 -0.935878 0.883357
H 1.112099 -0.935878 -0.883357
H 2.608655 1.093836 -0.889958
H 2.608655 1.093836 0.889958