34

C 5.287263 -0.673304 -1.651380
Si 4.775937 0.170999 -0.064198
C 5.197376 -0.824015 1.460044
C 5.451541 1.902921 0.030289
O 3.079201 0.419441 -0.088053
C 2.083580 -0.472428 -0.065935
C 2.168947 -1.800240 -0.181693
C 0.784881 0.268645 0.200032
F 0.780649 0.696371 1.478708
F 0.709911 1.359956 -0.589186
C -0.518113 -0.524800 -0.034416
F -0.481028 -1.116675 -1.232882
F -0.646297 -1.463052 0.916129
C -1.783452 0.373210 -0.007513
F -1.695965 1.266810 0.979145
F -1.882814 1.016478 -1.175603
C -3.072772 -0.456598 0.206142
F -3.016184 -1.569282 -0.532571
F -3.172018 -0.782661 1.494722
C -4.352743 0.314966 -0.191229
F -4.454459 0.394676 -1.505079
F -5.406205 -0.326038 0.284273
F -4.322650 1.535969 0.320869
H 4.921892 -1.706624 -1.728862
H 4.915265 -0.107992 -2.518750
H 6.386232 -0.700113 -1.710165
H 6.291136 -0.893366 1.561969
H 4.801702 -0.326954 2.358109
H 4.795330 -1.846007 1.424640
H 5.133273 2.492545 -0.841736
H 5.096260 2.408554 0.939784
H 6.551148 1.885807 0.051498
H 1.283200 -2.429134 -0.140141
H 3.132325 -2.289361 -0.325923