14

H -4.313400 -0.000004 -0.000004
C -3.238079 -0.000001 0.000000
C -2.026907 0.000002 0.000003
C -0.586914 0.000002 0.000001
C 0.120690 1.212990 0.000005
C 1.512983 1.208539 0.000003
C 2.211151 -0.000002 -0.000002
C 1.512980 -1.208541 -0.000005
C 0.120687 -1.212989 -0.000004
H -0.431010 2.153898 0.000008
H 2.056914 2.154162 0.000006
H 3.302057 -0.000003 -0.000002
H 2.056909 -2.154165 -0.000009
H -0.431015 -2.153896 -0.000007