16

C 3.195640 -0.003347 -1.184439
N 2.497157 -0.000298 -0.249641
C 1.622311 0.003245 0.881889
C 0.169358 0.001553 0.458528
C -0.499883 -1.206718 0.246124
C -1.828007 -1.208770 -0.177932
C -2.494392 -0.001776 -0.392693
C -1.830040 1.206854 -0.181030
C -0.501884 1.208140 0.243015
H 1.854404 -0.883498 1.487064
H 1.853999 0.894040 1.481230
H 0.021901 -2.151467 0.414906
H -2.344643 -2.156109 -0.338876
H -3.534445 -0.003068 -0.722484
H -2.348252 2.152908 -0.344444
H 0.018321 2.154193 0.409327