18

N 3.431985 -0.584373 -0.225526
N 2.046348 -0.696142 -0.217038
C 1.251676 0.354884 0.106298
O 1.714509 1.440187 0.416670
C -0.227291 0.101632 0.043260
C -1.062532 1.206727 -0.147974
C -2.443450 1.039323 -0.207963
C -2.998307 -0.233805 -0.061625
C -2.169955 -1.336735 0.147266
C -0.786400 -1.171809 0.199868
H 3.680279 0.254885 -0.753244
H 3.744434 -0.403800 0.729710
H 1.661795 -1.533459 -0.636277
H -0.609295 2.193795 -0.249677
H -3.091093 1.902714 -0.366834
H -4.080521 -0.365993 -0.104117
H -2.602355 -2.329728 0.277702
H -0.150090 -2.037607 0.392548