23

O -3.924978 1.514374 0.043696
C -4.221935 0.301148 0.060757
O -5.343779 -0.223294 0.143344
C -3.030917 -0.694297 -0.035257
N -1.789863 0.036459 -0.092082
C -0.581624 -0.529586 -0.106378
C 0.587971 0.451120 -0.163738
N 1.814833 -0.288841 -0.053956
C 3.008981 0.318156 0.065809
C 4.198426 -0.599779 0.302436
N 5.396487 0.017652 -0.231660
O 3.137664 1.534024 0.036105
O -0.389938 -1.740440 -0.084631
H -3.057749 -1.367084 0.836877
H -3.169293 -1.326155 -0.928037
H -1.925036 1.047441 -0.087117
H 0.537443 1.014671 -1.110776
H 0.497289 1.190496 0.648012
H 1.720055 -1.300676 -0.036851
H 4.221121 -0.783571 1.395512
H 4.013067 -1.573980 -0.175343
H 5.395658 0.993489 0.065843
H 6.220076 -0.409404 0.185874