38

C 1.351892 -1.354243 0.077403
C 0.007481 -1.665512 -0.046100
C -0.996070 -0.683960 -0.154416
C -2.377684 -1.108724 -0.259694
C -3.537777 -0.416239 -0.061877
C -4.860375 -0.999831 -0.312880
C -5.804140 -0.066540 -0.019032
C -5.128582 1.141336 0.456452
C -3.781330 0.942963 0.431509
C -0.572893 0.658978 -0.184191
C 0.760212 1.019766 -0.078633
C 1.758968 0.010009 0.054960
N 3.088170 0.345283 0.120729
C 4.101893 -0.662938 0.385273
C 3.742021 -1.988227 -0.265297
C 2.382331 -2.446886 0.241280
C 3.501899 1.733324 0.238623
C 2.596609 2.643621 -0.573981
C 1.159029 2.477466 -0.102929
H -0.282628 -2.720349 -0.042563
H -2.503615 -2.163136 -0.533118
H -5.018421 -2.008402 -0.694058
H -6.883490 -0.184441 -0.108203
H -5.634519 2.045184 0.795862
H -3.027324 1.645936 0.776152
H -1.305347 1.452539 -0.337068
H 5.056503 -0.287511 -0.010049
H 4.236849 -0.802923 1.475481
H 3.713688 -1.856138 -1.358386
H 4.518625 -2.731280 -0.039495
H 2.467220 -2.714387 1.308359
H 2.047254 -3.352931 -0.283228
H 3.503502 2.052030 1.299239
H 4.538859 1.803574 -0.118992
H 2.928363 3.684954 -0.465860
H 2.680131 2.374642 -1.638820
H 0.463563 3.040457 -0.741497
H 1.062692 2.899022 0.912315