65

O 0.758626 0.748096 1.460928
C 0.180877 0.494609 0.362582
C 0.254035 -0.993260 0.045554
N -0.735831 -1.904179 0.029174
C -2.144912 -1.619877 0.114241
C -2.661171 -1.171922 1.342899
C -1.784824 -1.052689 2.560803
C -4.021560 -0.878109 1.398357
C -4.858886 -1.034211 0.285091
C -6.319862 -0.684943 0.382368
C -4.308111 -1.519885 -0.899790
C -2.946280 -1.827545 -1.012564
C -2.413521 -2.391470 -2.304266
C -0.195524 -3.175502 -0.067260
C 1.153937 -3.027351 -0.110563
N 1.409052 -1.671632 -0.031882
C 2.719725 -1.077858 -0.067150
C 3.185532 -0.561817 -1.280768
C 2.325265 -0.575496 -2.515858
C 4.470826 -0.013737 -1.293571
C 5.265010 0.026441 -0.143488
C 6.633532 0.653189 -0.178257
C 4.751583 -0.501261 1.046963
C 3.474277 -1.059783 1.111854
C 2.897442 -1.594691 2.392528
C -0.492170 1.326426 -0.520510
C -0.687020 2.753834 -0.234012
C -1.435890 3.560579 -1.123987
C -1.649186 4.916824 -0.886847
C -1.124337 5.531734 0.249971
C -0.382978 4.756724 1.144104
C -0.166310 3.400296 0.914666
C -1.058141 0.807563 -1.818120
H -1.024526 -0.266353 2.444580
H -2.392759 -0.827684 3.445347
H -1.245993 -1.995942 2.742345
H -4.444587 -0.525551 2.342314
H -6.449258 0.397515 0.530147
H -6.861878 -0.972731 -0.527114
H -6.786720 -1.188264 1.240907
H -4.950740 -1.664938 -1.771564
H -2.898757 -1.904085 -3.160179
H -1.327743 -2.271678 -2.406815
H -2.633788 -3.468243 -2.368126
H -0.822775 -4.060951 -0.092545
H 1.954204 -3.755624 -0.197317
H 1.531350 0.183504 -2.436390
H 2.923342 -0.350500 -3.407037
H 1.835548 -1.550275 -2.659438
H 4.861096 0.390132 -2.230924
H 6.566473 1.732765 0.026774
H 7.293063 0.212217 0.580515
H 7.100816 0.532736 -1.164571
H 5.361027 -0.475063 1.953532
H 1.950564 -1.071882 2.595022
H 2.687123 -2.672584 2.323237
H 3.588549 -1.432680 3.228358
H -1.867735 3.120563 -2.022721
H -2.235124 5.498341 -1.601957
H -1.289935 6.594208 0.435603
H 0.039194 5.216697 2.040665
H 0.416073 2.809651 1.616170
H -2.161004 0.856022 -1.850269
H -0.689653 1.390556 -2.679412
H -0.775157 -0.234842 -2.007432