19

C 3.275322 -0.571251 0.000241
C 1.823278 -0.163389 -0.000210
C 1.487648 1.216058 -0.000142
C 0.175213 1.656799 -0.000018
C -0.837152 0.685215 0.000049
C -0.540063 -0.701586 -0.000063
C -1.800410 -1.393028 -0.000029
C -2.778220 -0.429786 0.000095
N -2.203666 0.815662 0.000128
C 0.809260 -1.111432 -0.000233
H 3.796506 -0.183157 0.888310
H 3.380812 -1.664057 -0.005552
H 3.799864 -0.173189 -0.881370
H 2.296130 1.951128 -0.000264
H -0.062608 2.721598 -0.000049
H -1.960505 -2.467689 -0.000060
H -3.860296 -0.535547 0.000177
H -2.710056 1.691616 0.000158
H 1.056570 -2.175943 -0.000386