30

C 1.677694 2.799861 0.062249
C 1.283285 1.519366 0.097331
N -0.088067 1.198518 0.221379
C -0.717140 0.245440 -0.538381
O -0.154178 -0.363300 -1.427328
C -2.160132 0.000574 -0.200921
C -2.962635 -0.580785 -1.188535
C -4.305743 -0.844040 -0.934042
C -4.850892 -0.540751 0.315332
C -4.050118 0.021934 1.309461
C -2.706503 0.293214 1.053764
C 2.240961 0.380601 0.127178
C 3.452367 0.446969 -0.572193
C 4.372611 -0.597391 -0.494173
C 4.092258 -1.724028 0.279302
C 2.882895 -1.801341 0.972664
C 1.962968 -0.758964 0.894720
H 2.736883 3.053852 0.091297
H 0.949032 3.611886 0.037970
H -0.668238 1.852795 0.733601
H -2.513988 -0.816876 -2.154353
H -4.930634 -1.288430 -1.709923
H -5.902742 -0.749758 0.516840
H -4.470245 0.243162 2.291455
H -2.083276 0.707708 1.848363
H 3.666649 1.315515 -1.197669
H 5.309835 -0.534172 -1.049409
H 4.811100 -2.542667 0.337531
H 2.654273 -2.679369 1.578906
H 1.019985 -0.820830 1.441815