18

C 3.680263 -0.045528 0.000014
N 2.288783 -0.424210 0.000007
C 1.417354 0.494394 -0.000029
C -0.036316 0.220016 -0.000013
C -0.941082 1.286900 0.000001
C -2.315490 1.046205 0.000015
C -2.791813 -0.264240 0.000016
C -1.891876 -1.334882 0.000000
C -0.521887 -1.095305 -0.000015
H 4.177027 -0.477831 0.881652
H 4.177025 -0.477824 -0.881627
H 3.839617 1.047837 0.000017
H 1.701865 1.565344 -0.000047
H -0.563679 2.312373 -0.000001
H -3.014887 1.883450 0.000027
H -3.866295 -0.454525 0.000028
H -2.265400 -2.360200 -0.000002
H 0.198325 -1.914509 -0.000028