20

C -3.299147 -0.532181 0.080259
C -1.954675 0.155140 -0.020517
O -1.840994 1.356407 -0.167583
N -0.886236 -0.699041 0.066371
C 0.470578 -0.368011 0.009523
C 1.470103 -1.262831 -0.045733
C 2.810944 -0.581522 -0.150989
C 2.485697 0.874780 0.237080
C 0.979813 1.055552 -0.031050
H -4.086390 0.224533 0.009773
H -3.417858 -1.263229 -0.731802
H -3.385430 -1.069495 1.034921
H -1.095766 -1.688467 0.143514
H 1.329235 -2.344898 -0.073621
H 3.575485 -1.026074 0.503854
H 3.203412 -0.652543 -1.181277
H 2.672049 1.007187 1.313175
H 3.101900 1.610410 -0.296178
H 0.772313 1.496586 -1.019773
H 0.482774 1.702459 0.702045