22

C -4.370285 0.353598 -0.137121
C -2.891004 0.101517 -0.039537
C -2.286203 -0.917442 -0.789056
C -0.922456 -1.171841 -0.683984
C -0.162385 -0.386469 0.181499
C -0.731947 0.629102 0.948872
C -2.097145 0.866363 0.827429
S 1.577641 -0.682444 0.299884
O 2.064869 -0.142299 1.561941
O 1.869042 -2.055802 -0.094400
C 2.304693 0.340595 -1.027100
N 2.052826 1.703094 -0.807038
C 1.812850 2.825200 -0.580658
H -4.899021 -0.175160 0.670897
H -4.596375 1.423000 -0.034730
H -4.773921 -0.005430 -1.092259
H -2.895290 -1.523368 -1.462380
H -0.449640 -1.971662 -1.256150
H -0.112253 1.214406 1.629598
H -2.558396 1.660178 1.417965
H 3.380580 0.118062 -0.982036
H 1.884288 -0.001513 -1.982161