38

N -2.568509 0.309387 3.318241
C -1.501841 0.112427 2.888033
C -0.236277 -0.133439 2.338269
P 0.016780 -0.033785 0.649519
C -0.003626 1.640644 -0.087108
C 0.792256 1.977886 -1.188144
C 0.713122 3.258801 -1.734776
C -0.158251 4.199812 -1.185349
C -0.949662 3.865098 -0.085185
C -0.871387 2.588497 0.468398
C 1.652916 -0.714467 0.269644
C 1.796291 -1.885687 -0.479264
C 3.071319 -2.397831 -0.723033
C 4.195564 -1.745144 -0.219983
C 4.051820 -0.573207 0.525624
C 2.783175 -0.053623 0.769788
C -1.244135 -0.967040 -0.271836
C -1.807491 -2.099373 0.328761
C -2.748077 -2.856731 -0.367260
C -3.124683 -2.487424 -1.659128
C -2.563368 -1.359035 -2.258200
C -1.625292 -0.594936 -1.566608
H 0.641483 -0.193672 2.980931
H 1.477285 1.243432 -1.618543
H 1.335371 3.522353 -2.591129
H -0.219117 5.201106 -1.614504
H -1.628288 4.602177 0.346062
H -1.484149 2.328653 1.335670
H 0.917155 -2.400192 -0.872426
H 3.182581 -3.312113 -1.307232
H 5.190787 -2.149721 -0.410271
H 4.931432 -0.060374 0.916628
H 2.675036 0.869829 1.344131
H -1.509235 -2.374812 1.342404
H -3.191941 -3.734916 0.103221
H -3.864112 -3.079139 -2.200893
H -2.861566 -1.067297 -3.265948
H -1.199099 0.294385 -2.034410