56

C -1.928985 2.206300 -2.428828
Si -1.199700 2.154991 -0.686467
C 0.186262 3.433954 -0.564308
C -2.544180 2.608021 0.567852
Si -0.559357 -0.038406 -0.107837
O 0.764695 -0.678417 -1.011655
C 2.075563 -0.385871 -0.832082
C 2.528181 0.702686 -0.187696
C 3.993292 0.969381 0.045561
C 4.842275 -0.277696 -0.196211
C 4.432157 -0.959329 -1.499301
C 2.982752 -1.432134 -1.420117
Si -0.088221 -0.223902 2.196332
C -1.742160 -0.492514 3.078621
C 1.030092 -1.725745 2.440058
C 0.733285 1.302600 2.953063
Si -2.215047 -1.576809 -0.746472
C -2.121891 -1.765733 -2.623340
C -1.818402 -3.251842 0.036656
C -3.945495 -1.018895 -0.231317
H -1.204851 1.838707 -3.171458
H -2.834546 1.584031 -2.496111
H -2.204879 3.238137 -2.697766
H -0.217989 4.434051 -0.787443
H 0.618951 3.458850 0.447543
H 0.994623 3.219942 -1.278592
H -3.365756 1.875600 0.563428
H -2.131904 2.652137 1.588055
H -2.967941 3.596958 0.331941
H 1.807270 1.436188 0.183598
H 4.337296 1.786474 -0.614347
H 4.142522 1.336554 1.074010
H 5.909919 -0.013949 -0.211937
H 4.697287 -0.985521 0.638137
H 4.536428 -0.239652 -2.328659
H 5.093499 -1.807693 -1.726658
H 2.900165 -2.343853 -0.801616
H 2.591480 -1.702382 -2.413347
H -2.239891 -1.410733 2.730783
H -1.584673 -0.580604 4.165094
H -2.425720 0.352490 2.901895
H 2.000403 -1.555318 1.948333
H 1.210608 -1.911410 3.510480
H 0.578098 -2.628734 2.003484
H 0.153681 2.216974 2.752151
H 0.804130 1.181616 4.045719
H 1.750082 1.444242 2.557885
H -1.096985 -2.039180 -2.915535
H -2.806566 -2.554621 -2.971788
H -2.383496 -0.828500 -3.135907
H -1.903175 -3.221020 1.133432
H -2.507058 -4.025499 -0.337873
H -0.790749 -3.553864 -0.218035
H -4.240349 -0.100579 -0.761993
H -4.682401 -1.800677 -0.473395
H -3.998960 -0.823146 0.850275