37

C -4.800782 1.980299 2.230118
C -4.155092 1.121249 1.186163
S -2.552442 0.482058 1.389561
C -4.659527 0.720207 -0.021540
C -3.750900 -0.101135 -0.768423
C -2.551726 -0.338489 -0.144462
B -1.293746 -1.279400 -0.617618
C 0.136806 -0.530900 -0.338669
C 1.229470 -1.223422 0.191610
C 2.464731 -0.599389 0.396722
C 3.584099 -1.400349 0.996571
F 3.832690 -2.511023 0.291654
F 4.727661 -0.712988 1.063690
F 3.294893 -1.802584 2.240774
C 2.651274 0.739540 0.071270
C 1.571078 1.443720 -0.462874
C 1.756198 2.878171 -0.866500
F 2.697675 3.487912 -0.137971
F 2.130838 2.994095 -2.147995
F 0.630920 3.586036 -0.733614
C 0.338219 0.821335 -0.655875
O -1.291225 -2.591764 0.070304
C -1.966055 -3.478948 -0.775424
C -1.578575 -3.006750 -2.178209
O -1.474502 -1.614662 -2.056536
H -4.898340 1.450467 3.189490
H -4.221335 2.896378 2.419301
H -5.805661 2.274781 1.899450
H -5.654079 1.011664 -0.365080
H -3.971848 -0.511566 -1.755314
H 1.098298 -2.276383 0.455361
H 3.611681 1.227553 0.237336
H -0.496789 1.407654 -1.051087
H -1.672992 -4.521636 -0.571172
H -3.066195 -3.402230 -0.646452
H -0.610589 -3.459749 -2.477230
H -2.325931 -3.285319 -2.941345