13

N 1.628143 1.103298 -0.000042
N 2.352143 0.000000 -0.000037
N 1.628143 -1.103298 -0.000016
C 0.328919 -0.708761 0.000002
C -0.884894 -1.433028 0.000032
C -2.064253 -0.711677 0.000044
C -2.064253 0.711677 0.000027
C -0.884894 1.433028 -0.000003
C 0.328919 0.708761 -0.000015
H -0.887779 -2.524999 0.000045
H -3.020355 -1.239129 0.000068
H -3.020355 1.239129 0.000037
H -0.887779 2.524999 -0.000016