12

F 1.997818 -0.382746 -0.746895
B 0.853446 -0.031420 0.008124
F 0.737691 -0.950764 1.076333
F 1.073163 1.254216 0.561656
C -0.484543 -0.030954 -0.928521
C -1.678014 0.448923 -0.177071
C -2.759988 -0.264194 0.153952
H -0.666457 -1.039275 -1.338289
H -0.285379 0.644022 -1.780492
H -1.621113 1.486936 0.177683
H -2.871088 -1.305349 -0.165757
H -3.565962 0.161758 0.756217