14

O 2.711787 -1.493117 -0.000224
C 1.826360 -0.602288 0.000048
C 2.122506 0.813626 0.000007
C 1.141941 1.793993 0.000071
C -0.221985 1.476559 0.000113
C -0.529850 0.115135 0.000033
N -1.956681 -0.266290 0.000010
O -2.785836 0.618371 0.000098
O -2.241811 -1.443592 -0.000075
C 0.413227 -0.899917 -0.000027
H 3.179349 1.093355 -0.000055
H 1.439389 2.845883 0.000080
H -1.004141 2.230470 0.000156
H 0.095854 -1.941619 -0.000112