17

H 0.972856 2.074077 0.005389
C 0.914591 0.983275 0.002815
Si -0.676066 -0.013759 -0.000083
C -2.073039 1.237753 -0.005036
C -0.730290 -1.105333 -1.531018
C -0.738922 -1.102145 1.532767
N 2.068150 0.391729 0.001663
N 3.049666 -0.170435 -0.000203
H -2.024261 1.878988 -0.897436
H -3.044532 0.721129 -0.007425
H -2.029374 1.880242 0.886734
H 0.143737 -1.774181 -1.560946
H -1.635656 -1.731400 -1.532485
H -0.726796 -0.496270 -2.446827
H -0.738413 -0.491274 2.447381
H -1.645300 -1.726755 1.531586
H 0.133920 -1.772287 1.567801