29

O -1.053262 -2.257892 1.006576
C -1.465066 -1.192185 0.576893
C -0.785277 -0.336666 -0.349307
C -1.252955 0.927366 -0.826384
N -2.522119 1.274978 -0.338881
C -3.125034 2.537337 -0.746957
O -0.640852 1.681476 -1.573556
I 1.009625 -0.979635 -1.066648
C 2.361173 0.127655 0.144272
C 3.358181 -0.549230 0.837276
C 4.231792 0.204680 1.624055
C 4.084880 1.588753 1.708846
C 3.068638 2.236566 1.004225
C 2.190939 1.508105 0.200784
N -2.720707 -0.693090 0.971143
C -3.538169 -1.471815 1.892358
C -3.271156 0.499215 0.532668
O -4.369724 0.859468 0.904393
H -2.415227 3.047929 -1.401200
H -4.066635 2.350147 -1.278730
H -3.342985 3.152335 0.135361
H 3.457901 -1.633724 0.781538
H 5.023492 -0.301034 2.178222
H 4.767326 2.169462 2.330594
H 2.957019 3.319491 1.071410
H 1.394143 1.996347 -0.364385
H -2.961528 -2.352900 2.182213
H -3.786567 -0.869162 2.774746
H -4.474237 -1.774553 1.405038