10

C -0.838681 2.064421 0.000000
C 0.000000 0.806978 0.000000
C -0.736167 -0.450796 0.000000
N -0.009097 -1.545816 0.000000
N 0.664998 -2.439520 0.000000
O 1.217410 0.846413 0.000000
H -1.915760 1.862510 0.000000
H -0.575391 2.658890 0.885930
H -0.575391 2.658890 -0.885930
H -1.814961 -0.577856 0.000000