29

O -1.675713 -1.431411 -1.865868
S -1.948727 -1.431356 -0.416331
C -0.553665 -1.750956 0.503825
H -0.775808 -2.309294 1.412012
C 0.688994 -1.128840 0.311302
C 1.731416 -1.331718 1.279247
C 2.964331 -0.737990 1.161687
C 3.235861 0.096609 0.061581
N 4.513546 0.723919 -0.059632
O 5.351979 0.521870 0.806291
O 4.728065 1.444071 -1.023457
C 2.252093 0.311862 -0.917123
C 1.016499 -0.285278 -0.804419
C -2.485840 0.248984 -0.050049
C -2.282965 1.269249 -0.975749
C -2.671361 2.571249 -0.649996
C -3.263255 2.836935 0.583584
C -3.475919 1.800950 1.499022
C -3.087832 0.501760 1.184473
O -3.023556 -2.307056 0.080618
H 1.523971 -1.972942 2.137992
H 3.738594 -0.897953 1.911063
H 2.485212 0.951421 -1.767818
H 0.276043 -0.131593 -1.587701
H -1.838791 1.036194 -1.944238
H -2.515616 3.377650 -1.368161
H -3.565797 3.854742 0.834666
H -3.949124 2.008283 2.459985
H -3.250215 -0.318936 1.885941