16

H -0.810381 0.855670 1.684081
N 0.000003 0.275618 1.461467
C 0.000000 -0.006093 0.020171
C -0.000011 1.278707 -0.819512
C 1.252021 -0.826209 -0.292438
C -1.252012 -0.826225 -0.292430
H 0.810388 0.855668 1.684078
H 0.891639 1.883875 -0.592784
H -0.000011 1.057871 -1.897948
H -0.891670 1.883861 -0.592782
H 1.260847 -1.749238 0.305135
H 1.290645 -1.093099 -1.358571
H 2.160173 -0.251308 -0.051408
H -2.160170 -0.251337 -0.051389
H -1.290643 -1.093111 -1.358563
H -1.260820 -1.749257 0.305139