12

N 1.594203 1.139307 -0.000026
C 2.250886 -0.025789 0.000190
N 1.535429 -1.169128 -0.000149
C 0.265029 -0.707309 -0.000022
N -0.879431 -1.412131 -0.000060
C -1.977780 -0.671334 -0.000011
N -2.071383 0.670284 0.000026
C -0.939393 1.376652 0.000048
C 0.293555 0.727101 0.000027
H 3.345106 -0.052358 0.000069
H -2.931992 -1.212227 -0.000066
H -1.018629 2.470339 0.000060