15

H -1.581536 1.143207 0.000000
N -0.579025 1.334209 0.000000
C 0.013732 0.751614 1.199923
C 0.013732 -0.772604 1.168452
O 0.647384 -1.249271 0.000000
C 0.013732 -0.772604 -1.168452
C 0.013732 0.751614 -1.199923
H 1.057587 1.101824 1.273756
H -0.520644 1.113331 2.090503
H 0.557007 -1.190603 2.027663
H -1.030912 -1.142866 1.206358
H 0.557007 -1.190603 -2.027663
H -1.030912 -1.142866 -1.206358
H -0.520644 1.113331 -2.090503
H 1.057587 1.101824 -1.273756