29

C -4.527385 -1.284752 0.004802
C -3.467577 -0.239445 0.002200
O -2.181582 -0.661078 -0.008821
C -1.346406 0.425059 -0.010049
C -2.125100 1.549813 -0.000404
C -3.498801 1.124083 0.007769
B 0.244623 0.174279 -0.007688
O 0.644717 -0.621961 1.179237
C 2.040101 -0.697034 1.285369
C 2.703274 -0.170340 0.004375
C 4.206940 -0.376981 0.010067
C 2.023743 -0.892859 -1.168761
O 0.664667 -0.555654 -1.229042
C 2.323444 1.314252 -0.111213
O 0.939263 1.481491 0.033464
H -4.470937 -1.913807 -0.896512
H -4.430317 -1.947906 0.877617
H -5.516675 -0.812682 0.036314
H -1.748983 2.569941 0.002070
H -4.395078 1.740106 0.016496
H 2.413616 -0.107634 2.151260
H 2.359980 -1.745817 1.454227
H 4.456402 -1.449436 0.018338
H 4.669314 0.071980 -0.882773
H 4.664908 0.084950 0.898501
H 2.534098 -0.610927 -2.112544
H 2.166077 -1.988781 -1.045308
H 2.865425 1.886633 0.669212
H 2.679139 1.698825 -1.092080