15

C -3.263789 -0.961825 0.000026
C -2.073745 -0.067355 0.000024
O -0.855249 -0.657344 -0.000058
C 0.114965 0.309376 -0.000144
C -0.505736 1.527915 -0.000077
C -1.922997 1.288315 0.000002
B 1.668118 -0.146376 -0.000019
F 1.973348 -0.920081 -1.140442
F 2.482347 1.004207 -0.000786
F 1.973516 -0.918562 1.141387
H -3.272460 -1.611989 -0.887697
H -3.272372 -1.612201 0.887594
H -4.181172 -0.361177 0.000152
H 0.001841 2.489716 0.000013
H -2.729520 2.017648 0.000086