16

O 1.120151 -1.163716 -0.769071
C 1.379779 -0.163235 -0.062720
O 2.482338 0.408986 0.058317
C 0.189868 0.457060 0.717694
N -0.554969 1.356188 -0.185088
C -1.442039 0.470781 -0.948230
C -1.779102 -0.746182 -0.045925
C -0.842257 -0.590287 1.168491
H 0.602905 1.046366 1.548722
H -1.141022 1.951322 0.400528
H -2.333073 1.025386 -1.275864
H -0.912892 0.121952 -1.845497
H -2.836255 -0.746010 0.257216
H -1.578669 -1.683187 -0.579732
H -0.373272 -1.538330 1.465089
H -1.400338 -0.201806 2.035317