49

C 4.143324 -0.027517 -0.985564
C 2.826291 0.308302 -0.292291
C 2.907034 1.747998 0.237028
O 1.772008 0.194433 -1.217981
B 0.524592 -0.065353 -0.458166
C -0.326840 1.301353 -0.133539
C -0.929600 1.520673 1.115674
C -1.734653 2.634278 1.368193
C -1.958244 3.578018 0.362807
C -1.363544 3.392930 -0.887794
C -0.565226 2.270448 -1.122469
C -0.465728 -1.068089 -1.354393
C 0.239901 -2.369851 -1.730612
C -1.767374 -1.295380 -0.642356
C -2.930276 -0.590808 -0.997240
C -4.123618 -0.742288 -0.291692
C -4.193585 -1.617037 0.793985
C -3.051211 -2.331491 1.160642
C -1.859943 -2.171975 0.452601
O 1.006375 -0.697585 0.800236
C 2.414791 -0.709392 0.836329
C 2.917989 -2.125822 0.533601
C 2.894744 -0.314750 2.232653
H 4.976861 -0.054979 -0.266785
H 4.085559 -0.997726 -1.495535
H 4.366728 0.742319 -1.739734
H 2.992410 2.430991 -0.621990
H 1.998906 2.015507 0.793321
H 3.780508 1.897093 0.889249
H -0.757014 0.786301 1.908604
H -2.192303 2.770152 2.351769
H -2.587036 4.450494 0.553134
H -1.525036 4.128565 -1.680109
H -0.107457 2.141260 -2.109457
H -0.692602 -0.508903 -2.280658
H -0.382979 -3.026740 -2.361950
H 1.170755 -2.147160 -2.272786
H 0.521675 -2.937139 -0.831036
H -2.886133 0.102957 -1.841383
H -5.007173 -0.175025 -0.593381
H -5.126634 -1.740504 1.346674
H -3.087014 -3.016354 2.010967
H -0.965715 -2.712297 0.768754
H 2.666937 -2.412791 -0.495361
H 4.005895 -2.218318 0.672529
H 2.419655 -2.828746 1.218691
H 2.591186 -1.087744 2.955221
H 3.991871 -0.225420 2.269641
H 2.452749 0.638591 2.551027