36

C -1.487241 1.140820 -2.472147
N -2.016633 1.077845 -1.134326
C -1.218431 1.540060 -0.002103
N -2.016657 1.080962 1.131370
C -1.487312 1.147628 2.469034
C -2.849098 0.054836 0.708076
C -3.595734 -0.865321 1.421876
C -4.374492 -1.794478 0.695873
C -4.374476 -1.796395 -0.690936
C -3.595695 -0.869256 -1.419489
C -2.849079 0.052880 -0.708221
C 0.201697 0.974566 -0.001316
C 1.303938 1.825864 -0.002061
C 2.601949 1.309037 -0.001334
C 2.786338 -0.069153 0.000093
C 1.687910 -0.936904 0.000829
C 0.401766 -0.414288 0.000155
C 4.166057 -0.665055 0.000895
F 4.365275 -1.440200 1.072971
F 4.365783 -1.441903 -1.069852
F 5.122313 0.263679 0.000379
H -0.772962 0.324814 -2.690192
H -2.310679 1.087952 -3.197668
H -0.972933 2.100798 -2.615360
H -1.144034 2.643294 -0.003610
H -0.973015 2.107999 2.609614
H -2.310774 1.096764 3.194669
H -0.773037 0.332232 2.689370
H -3.578959 -0.880702 2.512145
H -4.970553 -2.527649 1.241138
H -4.970533 -2.531063 -1.234186
H -3.578895 -0.887660 -2.509709
H 1.151529 2.907497 -0.003195
H 3.463376 1.976837 -0.001899
H 1.843334 -2.017251 0.001970
H -0.457761 -1.088736 0.000753