30

N 4.435429 -0.893271 0.594964
C 3.323473 -1.036871 -0.169067
O 3.179598 -2.000223 -0.916119
C 2.315425 0.042549 -0.030083
C 1.199154 -0.077843 -0.786192
N 0.182747 0.834090 -0.795533
C -1.070469 0.568284 -1.469807
C -2.164779 0.050124 -0.554037
C -3.503473 0.166077 -0.944526
C -4.523918 -0.331906 -0.136611
C -4.216711 -0.947815 1.078167
C -2.885394 -1.059936 1.476939
C -1.863741 -0.562673 0.665902
C 0.278921 1.927706 0.069349
C 1.338866 2.138496 0.859663
C 2.533727 1.217634 0.901583
H 5.156777 -1.600343 0.534276
H 4.583003 -0.104337 1.207414
H 1.085567 -0.945044 -1.440763
H -1.414648 1.486803 -1.969376
H -0.873751 -0.165830 -2.265133
H -3.747263 0.655394 -1.890764
H -5.563623 -0.233255 -0.452940
H -5.014198 -1.334442 1.714453
H -2.637878 -1.536205 2.427051
H -0.823901 -0.647102 0.990264
H -0.576561 2.605396 0.051078
H 1.339214 3.024850 1.495153
H 2.707097 0.871860 1.938603
H 3.449675 1.775342 0.625949