14

C -1.783045 -0.620147 0.018751
C -0.460378 0.033806 -0.344044
O -0.429722 1.394019 0.058056
C 0.737277 -0.709252 0.232444
N 1.967610 -0.066575 -0.201229
H -2.618390 -0.042481 -0.399214
H -1.837017 -1.646946 -0.369102
H -1.903918 -0.661436 1.113249
H -0.344312 0.057684 -1.439501
H -0.598501 1.421066 1.009563
H 0.609991 -0.746929 1.335677
H 0.716337 -1.751785 -0.123393
H 1.914608 0.914510 0.072584
H 2.762587 -0.456255 0.301394