16

O 3.240037 -0.326602 -0.000140
C 1.985381 -0.143728 -0.000053
C 1.378537 1.166024 -0.000022
C 0.005326 1.366056 0.000025
C -0.888186 0.286303 0.000031
O -2.232370 0.591591 0.000073
C -3.133409 -0.477471 0.000128
C -0.358746 -1.007787 -0.000015
C 1.023753 -1.211285 -0.000060
H 2.053751 2.026797 -0.000031
H -0.411755 2.377183 0.000055
H -3.016669 -1.115467 -0.894015
H -3.016547 -1.115474 0.894249
H -4.143977 -0.050856 0.000197
H -1.017989 -1.878118 -0.000019
H 1.415915 -2.232635 -0.000103