33

C 3.165412 0.404330 1.633667
Si 2.683222 -0.271695 -0.044015
O 1.001914 -0.533263 -0.093980
C -0.019000 0.343913 0.033933
C 0.106894 1.671202 0.225347
C -1.108006 2.544878 0.407100
C -2.296571 2.007486 -0.384682
C -2.497204 0.529951 -0.152698
C -3.760849 -0.060835 -0.146333
C -3.906402 -1.441220 0.008564
C -2.777689 -2.247392 0.151298
C -1.508073 -1.670610 0.146479
C -1.360155 -0.287238 0.004149
C 3.179745 0.868576 -1.442747
C 3.386216 -1.980919 -0.296140
H 2.779738 -0.249012 2.430635
H 4.263052 0.427800 1.715155
H 2.791096 1.422242 1.809343
H 1.096369 2.125457 0.308223
H -1.368827 2.602861 1.480317
H -0.883774 3.572859 0.090494
H -3.215980 2.559111 -0.144017
H -2.101041 2.161511 -1.461206
H -4.644326 0.570455 -0.267157
H -4.903175 -1.885319 0.014453
H -2.885314 -3.326925 0.268217
H -0.614916 -2.286023 0.256807
H 4.277580 0.929246 -1.495051
H 2.814096 0.472766 -2.402151
H 2.788611 1.887836 -1.318801
H 3.060436 -2.657351 0.507644
H 3.054212 -2.399917 -1.257390
H 4.485833 -1.950498 -0.295087