47

C 5.326732 -2.716586 -1.486112
O 5.150597 -1.868574 -0.375437
C 3.893826 -1.486471 -0.057641
C 3.761733 -0.638788 1.054200
C 2.508862 -0.196346 1.448273
C 1.347454 -0.578992 0.757639
C 1.492354 -1.425403 -0.339472
C 2.749258 -1.881379 -0.754711
C 0.003725 -0.008050 1.192581
C -0.170922 1.442696 0.761549
C -1.052963 2.271109 1.473784
C -1.290056 3.579129 1.080811
C -0.646911 4.104297 -0.051665
O -0.935969 5.386622 -0.365910
C -0.318984 5.949327 -1.500288
C 0.237144 3.296086 -0.770939
C 0.466280 1.979494 -0.355670
C -1.166183 -0.881751 0.757147
C -1.438189 -2.068174 1.457709
C -2.459904 -2.919332 1.065975
C -3.248277 -2.608157 -0.053800
O -4.222410 -3.491622 -0.365831
C -5.026215 -3.227569 -1.491848
C -2.992322 -1.432257 -0.763423
C -1.959430 -0.583570 -0.349046
H 6.402820 -2.898870 -1.575472
H 4.807027 -3.677442 -1.343712
H 4.961130 -2.245124 -2.412440
H 4.663575 -0.344025 1.592540
H 2.423572 0.470638 2.310269
H 0.608469 -1.746116 -0.894877
H 2.815088 -2.542317 -1.617806
H 0.004493 -0.010790 2.294535
H -1.567146 1.874830 2.353419
H -1.972239 4.224104 1.636187
H 0.777409 5.965574 -1.394374
H -0.582711 5.395884 -2.415849
H -0.687611 6.977276 -1.581980
H 0.755914 3.673326 -1.651080
H 1.163245 1.363668 -0.927792
H -0.829191 -2.328323 2.327548
H -2.674387 -3.839007 1.612119
H -5.574390 -2.278444 -1.379639
H -4.424642 -3.187460 -2.414017
H -5.743864 -4.051327 -1.566085
H -3.587864 -1.158081 -1.632952
H -1.778512 0.334752 -0.911426