13

N -2.295184 0.000000 -0.000302
C -0.940349 0.000000 -0.000077
C -0.196316 -1.198426 -0.000067
C 1.190317 -1.133040 0.000017
N 1.897896 0.000000 0.000123
C 1.190317 1.133040 0.000135
C -0.196316 1.198426 0.000024
H -2.813816 -0.865977 0.000418
H -2.813816 0.865977 0.000531
H -0.702525 -2.164960 -0.000135
H 1.763896 -2.066037 0.000040
H 1.763896 2.066037 0.000197
H -0.702525 2.164960 0.000015