11

N 0.000008 -1.412043 -0.000207
C 1.141574 -0.723462 -0.000048
C 1.198088 0.670931 0.000147
C -0.000008 1.382345 0.000202
C -1.198096 0.670919 0.000049
C -1.141565 -0.723475 -0.000164
H 2.066866 -1.308308 -0.000107
H 2.161214 1.181902 0.000260
H -0.000014 2.473610 0.000362
H -2.161227 1.181878 0.000091
H -2.066851 -1.308331 -0.000271