11

C 0.735468 0.991237 -0.000013
C 1.176993 -0.283246 0.000085
C 0.000059 -1.214383 -0.000092
C -1.176965 -0.283359 0.000162
C -0.735564 0.991165 -0.000113
H 1.356094 1.887702 -0.000042
H 2.216104 -0.611363 0.000126
H 0.000067 -1.880327 -0.881187
H 0.000111 -1.880494 0.880871
H -2.216043 -0.611577 0.000253
H -1.356276 1.887570 -0.000195