51

C 2.113233 5.069541 -0.607174
C 2.057803 3.652877 -0.121778
S 0.935325 2.500497 -0.781020
C 2.812147 3.051017 0.849414
C 2.483574 1.667608 1.043280
C 1.484476 1.195155 0.229088
B 0.842832 -0.316560 0.096767
C -0.793515 -0.222351 0.067359
C -1.516303 0.493400 1.033970
C -2.909176 0.555143 1.058145
C -3.677476 -0.115581 0.079776
N -5.064787 -0.085069 0.101105
C -5.728817 0.831917 0.997199
C -5.789519 -0.585281 -1.042986
C -2.968513 -0.816069 -0.919596
C -1.572823 -0.862564 -0.904751
O 1.314583 -1.040423 -1.113458
C 2.257845 -2.014088 -0.732056
C 2.192343 -3.189945 -1.701110
C 3.665299 -1.406750 -0.767509
C 1.818444 -2.363533 0.730841
C 0.650354 -3.357804 0.744113
C 2.943088 -2.895520 1.612697
O 1.381635 -1.120631 1.227941
H 2.358652 5.123089 -1.678665
H 1.152460 5.587157 -0.465611
H 2.883600 5.623140 -0.053771
H 3.580971 3.588041 1.409089
H 2.977979 1.017546 1.767910
H -0.964379 1.041311 1.806709
H -3.401584 1.131122 1.841327
H -5.455925 1.888365 0.810771
H -6.813676 0.730860 0.877591
H -5.488950 0.608326 2.048414
H -5.583847 -1.654066 -1.209949
H -6.865477 -0.479687 -0.863025
H -5.539291 -0.048347 -1.978097
H -3.506323 -1.333087 -1.713975
H -1.055850 -1.424629 -1.688553
H 2.538259 -2.869349 -2.695496
H 2.836117 -4.018437 -1.366604
H 1.163521 -3.560412 -1.800587
H 3.752863 -0.602582 -0.023826
H 4.447819 -2.157650 -0.581136
H 3.830544 -0.971025 -1.764591
H 0.964723 -4.374332 0.463718
H 0.232718 -3.390756 1.761808
H -0.141797 -3.024297 0.058888
H 3.730495 -2.141500 1.742578
H 2.545366 -3.147688 2.607441
H 3.390616 -3.805382 1.183013