32

O 1.397923 -2.602138 -0.096191
C 1.230307 -1.392774 -0.010689
C -0.000012 -0.651788 0.000014
C 0.000008 0.831412 0.000008
C -0.792903 1.572489 0.898172
C -0.800091 2.966269 0.896308
C 0.000057 3.676967 -0.000001
C 0.800183 2.966236 -0.896303
C 0.792948 1.572456 -0.898157
C -1.230346 -1.392750 0.010716
O -2.337323 -0.585153 -0.113768
C -3.595699 -1.230565 -0.076057
C -4.664116 -0.170503 -0.236115
O -1.397985 -2.602111 0.096220
O 2.337299 -0.585192 0.113765
C 3.595666 -1.230621 0.076037
C 4.664100 -0.170571 0.236064
H -1.417296 1.032573 1.611498
H -1.428926 3.502819 1.610301
H 0.000075 4.768307 -0.000005
H 1.429037 3.502760 -1.610299
H 1.417325 1.032514 -1.611478
H -3.656502 -1.983791 -0.877537
H -3.711230 -1.774056 0.875703
H -4.600833 0.568560 0.575008
H -4.543509 0.356640 -1.192896
H -5.662914 -0.627072 -0.213415
H 3.656474 -1.983839 0.877525
H 3.711172 -1.774124 -0.875718
H 4.600810 0.568484 -0.575065
H 4.543517 0.356584 1.192841
H 5.662891 -0.627153 0.213351