34

O -1.976783 2.473446 -0.715558
C -2.103612 1.344068 -0.259661
C -1.336228 0.729816 0.759422
C -0.148033 1.450946 1.337900
C 1.164827 0.978438 0.751094
C 1.683440 1.550773 -0.421180
C 2.855309 1.077439 -0.998143
C 3.546345 0.004464 -0.416449
O 4.682661 -0.389834 -1.043384
C 5.400198 -1.470757 -0.499989
C 3.041904 -0.584453 0.747253
C 1.861551 -0.092082 1.313965
C -1.691181 -0.533995 1.290411
O -2.748554 -1.185511 0.677746
C -3.054712 -0.815585 -0.652716
C -2.001717 -1.365976 -1.611873
C -4.433951 -1.365906 -0.948065
O -3.145420 0.589827 -0.776533
O -1.185860 -1.102254 2.250598
H -0.265128 2.526822 1.144157
H -0.122913 1.300221 2.428355
H 1.146927 2.380263 -0.889311
H 3.263156 1.523972 -1.906484
H 4.793496 -2.390796 -0.484845
H 6.272158 -1.626811 -1.144574
H 5.742966 -1.253175 0.524647
H 3.553737 -1.421299 1.221283
H 1.455855 -0.565521 2.210547
H -1.963330 -2.460140 -1.528490
H -2.264817 -1.094176 -2.642797
H -1.010986 -0.955087 -1.376496
H -5.148974 -0.944405 -0.229544
H -4.736570 -1.088970 -1.966085
H -4.428790 -2.459428 -0.855137