27

C 2.480955 2.132791 0.012616
C 2.120992 0.685410 -0.016441
C 0.892432 0.161014 -0.137329
O -0.281087 0.771172 -0.240621
Si -1.814047 0.041750 0.019966
C -2.157107 -1.171486 -1.357538
C -1.807205 -0.769034 1.703143
C -2.980398 1.495896 -0.047768
O 0.847881 -1.204974 -0.185408
C 2.162375 -1.663864 0.160067
C 3.101025 -0.465437 -0.055962
H 1.575276 2.754444 0.011447
H 3.070352 2.388917 0.907696
H 3.089353 2.416227 -0.862556
H -1.440315 -2.003160 -1.325793
H -3.175683 -1.577845 -1.264486
H -2.074327 -0.675083 -2.335839
H -1.551618 -0.037442 2.484056
H -2.800996 -1.182458 1.932850
H -1.074066 -1.587146 1.734468
H -2.749477 2.221550 0.745660
H -2.905885 2.008116 -1.018309
H -4.019873 1.160538 0.084027
H 2.147614 -1.963828 1.220091
H 2.394329 -2.539921 -0.456739
H 3.631188 -0.515699 -1.023898
H 3.868015 -0.413039 0.731299