24

C -3.463495 -0.194623 1.478689
S -2.657990 -0.222458 -0.146194
C -3.505811 1.180247 -0.908271
C -1.045557 0.284228 0.079545
C -0.029494 -0.637925 -0.260990
O -0.212493 -1.793889 -0.671454
C 1.400923 -0.160495 -0.085328
C 2.400582 -1.136728 -0.004908
C 3.737703 -0.776718 0.149821
C 4.094554 0.571501 0.211087
C 3.106893 1.553095 0.116740
C 1.768016 1.189629 -0.027906
H -4.531394 -0.404431 1.341961
H -2.990126 -0.985916 2.070125
H -3.307518 0.786243 1.944458
H -3.307341 2.086200 -0.322562
H -3.100473 1.277345 -1.921222
H -4.579477 0.960339 -0.943059
H -0.878883 1.254713 0.543061
H 2.099705 -2.183117 -0.070088
H 4.506010 -1.548744 0.221273
H 5.141396 0.857183 0.327004
H 3.380563 2.609074 0.150227
H 1.009425 1.968278 -0.121309