20

C 3.223863 1.668419 0.000046
C 2.537164 0.323567 0.000089
C 3.337253 -0.840219 0.000109
N 4.001214 -1.799537 -0.000340
C 1.143364 0.194431 0.000062
C 0.472952 -1.083051 0.000066
C -0.893132 -1.186975 0.000053
C -1.694281 -0.022351 0.000032
N -3.107337 -0.130894 0.000009
O -3.617169 -1.246695 -0.000058
O -3.783995 0.892446 -0.000089
C -1.081592 1.246389 0.000029
C 0.287918 1.354380 0.000046
H 2.956518 2.269631 -0.885738
H 2.956497 2.269686 0.885785
H 4.315084 1.550231 0.000063
H 1.078948 -1.991153 0.000085
H -1.380950 -2.161025 0.000057
H -1.712576 2.134642 0.000009
H 0.737597 2.347459 0.000043