54

C 3.576360 -1.834927 0.515739
C 2.447705 -2.818399 0.355003
C 2.799217 -4.070277 -0.403667
C 1.215443 -2.627189 0.859846
C 0.703074 -1.438099 1.605048
Sn -0.138338 -0.024810 0.154243
C -1.128870 1.650089 1.123886
C -1.809215 2.583360 0.120970
C -2.495125 3.784738 0.770719
C -3.180137 4.699392 -0.237957
C 1.517207 0.709555 -1.044232
C 2.375782 1.741839 -0.312237
C 3.618964 2.166017 -1.092659
C 4.469915 3.190528 -0.351537
C -1.573720 -1.118712 -1.054695
C -2.705040 -1.728182 -0.226365
C -3.722421 -2.505881 -1.060365
C -4.847421 -3.106673 -0.225720
H 4.373499 -2.258108 1.149816
H 4.038621 -1.614536 -0.460667
H 3.255404 -0.883903 0.960062
H 3.636862 -4.599498 0.080232
H 1.946393 -4.759587 -0.467757
H 3.130066 -3.830921 -1.427810
H 0.475958 -3.415231 0.667185
H -0.091066 -1.725279 2.308805
H 1.484751 -0.918571 2.177318
H -1.866701 1.257434 1.842807
H -0.379819 2.203388 1.714417
H -1.070675 2.953148 -0.614419
H -2.559448 2.022845 -0.466139
H -3.231604 3.418228 1.505819
H -1.745827 4.353995 1.346268
H -3.667732 5.553434 0.253235
H -2.455028 5.097962 -0.964021
H -3.950109 4.152928 -0.803874
H 2.126139 -0.164930 -1.329610
H 1.124336 1.135919 -1.981838
H 1.771833 2.638983 -0.085103
H 2.697595 1.349351 0.670502
H 4.220389 1.267800 -1.314488
H 3.304889 2.571690 -2.069244
H 4.821106 2.786825 0.610531
H 5.354038 3.483490 -0.935374
H 3.891003 4.101778 -0.136735
H -1.983377 -0.436654 -1.818220
H -1.029104 -1.908264 -1.598835
H -2.286652 -2.402760 0.543023
H -3.236280 -0.934014 0.329657
H -4.141838 -1.831940 -1.826390
H -3.195176 -3.303464 -1.610583
H -4.449101 -3.803991 0.527065
H -5.401749 -2.320861 0.309993
H -5.565007 -3.659273 -0.848446