17

Cl -4.006233 0.358817 0.933933
C -2.180382 0.434322 1.013114
H -1.879269 -0.321636 1.756106
S -1.610080 -0.192976 -0.502285
C 0.165516 -0.097423 -0.250795
C 0.869767 -1.244701 0.101504
C 2.248605 -1.171353 0.296522
C 2.890172 0.053709 0.124785
Cl 4.611269 0.152766 0.363804
C 2.188777 1.204937 -0.239756
C 0.812609 1.124008 -0.428964
O -1.893462 -1.616895 -0.800147
O -1.947930 0.740179 -1.596139
H 0.336006 -2.189546 0.211324
H 2.824822 -2.054140 0.573386
H 2.720817 2.146529 -0.374663
H 0.234053 2.002222 -0.719284