27

O 1.007263 0.964818 -2.030842
C 1.593489 0.596757 -1.032315
O 2.808127 1.126534 -0.763212
C 3.647579 0.495794 0.214572
C 4.862806 1.380571 0.381654
C 2.878857 0.273331 1.504799
C 1.610661 -0.535877 1.268631
C 1.102005 -0.350681 -0.057336
I -0.641384 -1.319136 -0.528134
C -2.093954 0.140955 -0.000566
C -1.927537 1.425890 -0.509045
C -2.870288 2.391402 -0.155874
C -3.945215 2.059836 0.670845
C -4.085719 0.761020 1.158802
C -3.148905 -0.220799 0.829643
O 1.111812 -1.224701 2.146029
H 3.948475 -0.485183 -0.193285
H 4.562446 2.362894 0.773094
H 5.570625 0.921174 1.084177
H 5.365128 1.524140 -0.583770
H 3.493971 -0.257753 2.243416
H 2.587967 1.244714 1.939751
H -1.084335 1.662562 -1.161531
H -2.763067 3.407441 -0.537833
H -4.679078 2.821273 0.937691
H -4.923407 0.504189 1.808411
H -3.245649 -1.233621 1.222294