42

C -5.908780 0.338607 -0.473932
O -5.264089 -0.765762 0.114090
C -3.913497 -0.836317 0.031569
C -3.303980 -1.945083 0.634964
C -1.924389 -2.087597 0.605444
C -3.110777 0.107809 -0.616876
C -1.724075 -0.054378 -0.643598
C -1.088252 -1.138134 -0.017462
C 0.366002 -1.367544 -0.018726
C 1.361157 -0.434672 -0.045850
C 1.093365 1.031047 0.062694
C 0.439346 1.552227 1.184504
C 0.180742 2.918826 1.277839
C 0.573807 3.777940 0.250226
C 1.234207 3.265927 -0.867719
C 1.497809 1.899817 -0.958128
N 2.684870 -0.772157 -0.190699
C 3.102323 -2.152839 -0.369894
C 4.619813 -2.051207 -0.486261
C 4.939369 -0.908734 0.478441
C 3.801952 0.083556 0.228423
H -6.980959 0.214736 -0.287436
H -5.570479 1.287193 -0.026294
H -5.733451 0.375584 -1.561282
H -3.938656 -2.684170 1.126166
H -1.469995 -2.957703 1.085403
H -3.551599 0.968886 -1.117798
H -1.128500 0.684415 -1.181084
H 0.659932 -2.418996 0.007611
H 0.125440 0.873423 1.980061
H -0.329537 3.315882 2.156861
H 0.368774 4.847171 0.322268
H 1.544124 3.933044 -1.673645
H 2.009627 1.494183 -1.833775
H 2.814664 -2.772917 0.502359
H 2.618406 -2.592317 -1.256650
H 5.127362 -2.991483 -0.236775
H 4.898392 -1.771397 -1.513778
H 4.892528 -1.276400 1.514776
H 5.928573 -0.460291 0.320406
H 4.071266 0.801196 -0.564939
H 3.545867 0.665657 1.125776