17

C -2.178491 -0.071371 0.000166
C -1.287573 1.211772 -0.000070
N 0.038031 0.653957 0.000043
C 1.388320 1.158105 0.000049
C 2.183829 -0.198114 0.000112
N 1.205237 -1.296446 -0.000055
C 0.062507 -0.713374 -0.000088
N -1.217566 -1.165679 -0.000268
H -2.826180 -0.101991 0.888727
H -2.826825 -0.101875 -0.887922
H -1.482109 1.832989 -0.889934
H -1.482126 1.833311 0.889561
H 1.604834 1.770997 -0.890969
H 1.604798 1.771066 0.891024
H 2.840527 -0.262787 -0.882349
H 2.840288 -0.262846 0.882749
H -1.464673 -2.143801 0.000058