23

O -2.391019 0.084087 -1.824629
S -2.645668 -0.616323 -0.555976
C -1.325839 -1.374894 0.091556
H -1.606046 -2.175772 0.773468
C 0.028521 -0.897943 0.040565
C 1.020146 -1.595871 0.779903
C 2.347587 -1.200893 0.778341
C 2.752381 -0.086054 0.035483
C 4.191128 0.305276 -0.007173
F 4.894506 -0.394946 -0.915961
F 4.357066 1.595805 -0.323401
F 4.808442 0.101997 1.165861
C 1.797201 0.620425 -0.700760
C 0.466213 0.229501 -0.702537
C -3.118651 0.827873 0.524840
F -2.112074 1.697020 0.608873
F -4.179774 1.467615 0.042262
F -3.407715 0.415756 1.755659
O -3.846586 -1.452942 -0.437611
H 0.721491 -2.464339 1.370510
H 3.079564 -1.758629 1.366271
H 2.099328 1.496628 -1.277663
H -0.258979 0.800384 -1.279990