31

C -0.930049 -1.175032 1.684768
C -1.134275 -1.124943 0.365015
C -0.243742 -1.836015 -0.638600
C 1.260464 -1.924257 -0.369427
C 2.065484 -0.643588 -0.645108
C 2.160688 0.389472 0.502498
C 1.638698 1.808180 0.227562
C 0.126966 1.979524 0.391014
C -0.737175 1.546649 -0.803978
C -2.152768 1.119950 -0.380733
C -2.336391 -0.404369 -0.220134
H -0.065763 -1.681656 2.121023
H -1.629877 -0.699113 2.377798
H -0.648629 -2.859007 -0.743201
H -0.389670 -1.379924 -1.631293
H 1.452651 -2.273110 0.658945
H 1.652278 -2.716138 -1.026111
H 3.088629 -0.953075 -0.906406
H 1.672629 -0.166896 -1.558836
H 1.642916 0.000124 1.393796
H 3.219338 0.475776 0.790847
H 2.135169 2.488131 0.937484
H 1.957004 2.139046 -0.777468
H -0.181774 1.412907 1.283232
H -0.102446 3.035618 0.610035
H -0.788438 2.380183 -1.521633
H -0.252823 0.724290 -1.349614
H -2.393555 1.616292 0.573952
H -2.901537 1.478002 -1.103124
H -2.549232 -0.842129 -1.208598
H -3.224266 -0.592749 0.401919