14

C 2.011769 0.644394 1.134054
C 1.572851 0.023794 -0.181629
C 2.557522 -1.006143 -0.703389
O 0.330673 -0.670861 0.000114
C -0.866692 -0.053312 -0.045573
S -2.178524 -1.090693 0.233519
S -0.978093 1.609214 -0.369530
H 2.972059 1.164361 1.006657
H 1.262210 1.369374 1.476527
H 2.136589 -0.137219 1.898452
H 1.414470 0.815859 -0.927208
H 2.690015 -1.815596 0.029594
H 2.198128 -1.442190 -1.645488
H 3.534326 -0.536420 -0.884054