22

C 3.699620 -0.724438 0.000002
C 2.273935 -0.231261 -0.000012
C 2.019144 1.163416 0.000037
C 0.732271 1.679224 0.000055
C -0.333016 0.768720 0.000025
C -0.116873 -0.633032 -0.000031
C -1.416471 -1.247495 -0.000031
C -2.347688 -0.234972 -0.000040
C -3.838732 -0.302480 0.000010
N -1.691185 0.975018 0.000009
C 1.205212 -1.119805 -0.000052
H 4.245488 -0.363925 0.884924
H 3.740365 -1.821584 -0.000208
H 4.245626 -0.363574 -0.884690
H 2.868201 1.851188 0.000060
H 0.555384 2.755839 0.000085
H -1.642272 -2.310940 -0.000053
H -4.258801 0.192703 0.887973
H -4.258914 0.193660 -0.887363
H -4.166515 -1.348429 -0.000522
H -2.145892 1.879423 0.000046
H 1.391216 -2.196748 -0.000085