47

C -0.618262 0.026311 1.608482
C 0.075423 -0.020545 0.203919
C 0.849413 1.296443 -0.031438
C 1.526043 1.931865 1.019748
C 2.296760 3.073337 0.802086
C 2.419696 3.607710 -0.479926
C 1.766133 2.980628 -1.538967
C 0.992752 1.841153 -1.315056
C 1.148656 -1.124906 0.129571
C 1.792201 -1.363504 -1.097117
C 2.802443 -2.310930 -1.218112
C 3.209436 -3.049814 -0.103693
C 2.592536 -2.819657 1.120918
C 1.574625 -1.866111 1.236497
C -1.024811 -0.224715 -0.848520
C -1.887087 0.834896 -1.173937
C -2.952547 0.653065 -2.053785
C -3.185492 -0.595429 -2.632855
C -2.344043 -1.658592 -2.313981
C -1.278354 -1.473250 -1.430670
N -1.470656 1.219276 1.747935
C -2.814435 0.793206 2.146314
C -2.623168 -0.563572 2.822059
C -1.526560 -1.177980 1.950305
H 0.179740 0.068656 2.363074
H 1.468628 1.535940 2.034296
H 2.805731 3.545814 1.644026
H 3.021338 4.501327 -0.652625
H 1.854992 3.378694 -2.551314
H 0.489897 1.371910 -2.161642
H 1.489399 -0.794130 -1.978235
H 3.277107 -2.472505 -2.187479
H 4.001381 -3.794704 -0.194308
H 2.897835 -3.383499 2.004051
H 1.125019 -1.717640 2.216889
H -1.720477 1.808087 -0.713572
H -3.604567 1.495907 -2.290414
H -4.015720 -0.736748 -3.326640
H -2.513161 -2.643902 -2.751858
H -0.643205 -2.325888 -1.187264
H -1.078938 1.842165 2.447483
H -3.284829 1.549415 2.789263
H -3.448225 0.676680 1.249303
H -2.260337 -0.421803 3.852429
H -3.536953 -1.172662 2.858478
H -1.976067 -1.595458 1.038296
H -0.982144 -1.988239 2.451180