29

C 4.245826 0.313849 0.523214
C 3.258556 0.159080 -0.360045
C 2.281845 -0.979233 -0.377257
B 0.789971 -0.514015 -0.188610
O -0.177271 -1.278012 0.405983
C -1.448040 -0.636173 0.165483
C -2.054697 -1.294474 -1.070055
C -2.346149 -0.839931 1.372628
C -1.021243 0.850366 -0.090334
C -1.879151 1.591877 -1.100133
C -0.894446 1.656780 1.198492
O 0.312409 0.693690 -0.620302
H 4.908651 1.180930 0.490847
H 4.421513 -0.424518 1.311357
H 3.113549 0.926291 -1.129515
H 2.321061 -1.489792 -1.357522
H 2.535935 -1.735920 0.380177
H -2.138912 -2.374900 -0.890300
H -3.055398 -0.895385 -1.284631
H -1.416532 -1.138776 -1.951935
H -1.852041 -0.517943 2.297287
H -3.282790 -0.275731 1.254599
H -2.596172 -1.905668 1.467771
H -2.923997 1.632475 -0.759033
H -1.511864 2.621844 -1.207235
H -1.845861 1.109753 -2.084544
H -0.288405 1.118424 1.941403
H -0.395651 2.608769 0.971403
H -1.879044 1.871961 1.635524