16

C 1.252043 -0.825586 -0.293986
C 0.000000 -0.006096 0.020142
C -0.000007 1.280282 -0.817148
C -1.252039 -0.825595 -0.293978
N 0.000003 0.272687 1.461907
H 2.160205 -0.250916 -0.052407
H 1.261119 -1.749297 0.302446
H 1.290481 -1.090989 -1.360496
H -0.000007 1.061558 -1.896015
H -0.891665 1.885070 -0.589379
H 0.891646 1.885078 -0.589381
H -1.261102 -1.749308 0.302451
H -2.160203 -0.250933 -0.052388
H -1.290485 -1.090994 -1.360488
H 0.810488 0.851944 1.686062
H -0.810476 0.851951 1.686064