25

O 2.329503 -1.430680 0.000065
C 2.404236 -0.206172 0.000326
C 1.349425 0.758274 0.000340
H 1.658448 1.803859 0.000504
C -0.022670 0.471043 0.000149
C -0.971206 1.554453 0.000186
C -2.327731 1.346655 0.000007
C -2.834326 0.031226 -0.000221
N -4.239328 -0.190639 -0.000409
O -4.991003 0.776512 -0.000434
O -4.658700 -1.341456 -0.000652
C -1.945335 -1.060630 -0.000267
C -0.585445 -0.854815 -0.000088
O 3.633933 0.395576 0.000385
C 4.757999 -0.468387 0.000254
C 6.003780 0.390068 0.000343
H -0.586936 2.576789 0.000364
H -3.025639 2.183068 0.000039
H -2.355020 -2.070433 -0.000445
H 0.095327 -1.702727 -0.000121
H 4.722789 -1.124878 0.884065
H 4.722757 -1.124649 -0.883726
H 6.029594 1.032823 -0.890650
H 6.029619 1.032599 0.891496
H 6.902126 -0.241892 0.000251