31

C 0.675097 -1.864557 -0.000322
C 0.833940 -0.532488 -0.000953
O -0.196608 0.346621 -0.002538
Si -1.875433 0.080486 0.000130
C -2.370217 -0.830610 1.559833
C -2.584155 1.807298 -0.002962
C -2.374839 -0.837494 -1.554087
C 2.173287 0.191120 -0.000192
C 3.350613 -0.783219 0.001560
C 2.245533 1.075288 -1.255086
C 2.243201 1.077011 1.253628
H 1.535038 -2.529440 0.000896
H -0.314548 -2.321982 -0.001334
H -1.973511 -0.307834 2.443137
H -3.467934 -0.849682 1.641317
H -2.009738 -1.868137 1.583402
H -2.258198 2.360506 -0.896129
H -3.683773 1.773642 -0.001751
H -2.256356 2.364618 0.886970
H -2.015907 -1.875637 -1.573601
H -3.472769 -0.855435 -1.632915
H -1.979524 -0.319500 -2.440821
H 3.341232 -1.426867 -0.890451
H 4.293992 -0.217678 0.002015
H 3.339647 -1.425659 0.894425
H 1.410484 1.788011 -1.276509
H 3.189307 1.641067 -1.263581
H 2.202847 0.460307 -2.166891
H 2.198633 0.463289 2.166197
H 3.187034 1.642675 1.263199
H 1.408208 1.789874 1.272400