15

O 3.128216 -1.100813 -0.000076
N 2.248502 -0.218399 -0.000113
C 0.939433 -0.615487 0.000002
H 0.783475 -1.687538 0.000021
C -0.167497 0.289876 0.000097
O -1.334301 -0.426662 0.000076
C -2.533599 0.331266 0.000062
C -3.695860 -0.635960 0.000008
O -0.194175 1.507202 0.000011
O 2.564365 0.978402 -0.000057
H -2.557219 0.987931 0.884117
H -2.557175 0.987976 -0.883959
H -3.664691 -1.278079 -0.891189
H -3.664731 -1.278133 0.891167
H -4.646878 -0.086556 0.000003