24

C 1.741783 0.908848 1.650406
Si 1.670429 0.022836 0.007748
C 1.784072 1.185984 -1.449731
C 2.936344 -1.338448 -0.097531
O 0.179278 -0.822260 -0.080730
C -1.036274 -0.299160 -0.047644
C -1.486722 0.965200 0.043556
C -2.992152 0.927145 -0.069266
C -3.253973 -0.577768 0.123901
O -2.008478 -1.240791 -0.136047
H 0.963790 1.679239 1.742265
H 1.618068 0.190268 2.474231
H 2.721672 1.396475 1.766491
H 2.780027 1.654182 -1.468986
H 1.649479 0.632781 -2.390998
H 1.032262 1.986139 -1.406401
H 2.807205 -2.055883 0.725713
H 2.846355 -1.881124 -1.049850
H 3.952072 -0.920859 -0.033798
H -0.871370 1.859598 0.086403
H -3.513611 1.517776 0.697144
H -3.343462 1.285664 -1.051886
H -3.541727 -0.797411 1.164209
H -4.011629 -0.992946 -0.550937