43

C 2.853683 4.676465 -0.391705
C 2.430503 3.343129 0.145432
S 1.877941 2.066994 -0.897344
C 2.406867 2.914739 1.445658
C 1.939333 1.565639 1.587352
C 1.601795 0.952031 0.407068
B 0.942935 -0.533309 0.107665
C -0.681396 -0.395079 0.065172
C -1.327329 0.259165 -0.996334
C -2.713552 0.394991 -1.046422
C -3.490882 -0.125653 -0.010110
C -4.985008 -0.030347 -0.050027
F -5.559539 -1.199131 -0.376009
F -5.499427 0.313937 1.138433
F -5.417456 0.868470 -0.940733
C -2.880646 -0.778989 1.063256
C -1.492996 -0.909207 1.088819
O 1.394449 -1.016481 -1.216119
C 2.732953 -1.407640 -1.248789
C 3.055629 -2.468754 -0.183783
C 2.256852 -3.741756 -0.460634
C 4.551355 -2.764695 -0.183028
C 2.641402 -1.873218 1.172398
O 1.307696 -1.466360 1.187640
H 3.685034 4.582874 -1.106548
H 2.029289 5.185173 -0.913886
H 3.183618 5.322576 0.432767
H 2.718456 3.550256 2.277176
H 1.855377 1.051238 2.547276
H -0.724196 0.677481 -1.807237
H -3.195582 0.905978 -1.881613
H -3.493517 -1.180952 1.873553
H -1.013602 -1.427705 1.922318
H 2.967943 -1.811877 -2.251741
H 3.407638 -0.538772 -1.081609
H 2.531519 -4.169614 -1.438149
H 2.451493 -4.502477 0.312257
H 1.181159 -3.520875 -0.468581
H 5.138301 -1.854247 0.017097
H 4.803765 -3.508043 0.589754
H 4.872318 -3.168521 -1.156300
H 2.798402 -2.628284 1.965742
H 3.320125 -1.021270 1.393586