17

C -2.113602 -0.000006 -0.026238
N -0.709200 -0.000022 -0.350753
C 0.019039 1.147707 0.162180
C 1.490693 0.774844 -0.057802
C 1.490661 -0.774864 -0.057965
C 0.019057 -1.147677 0.162308
H -2.601200 0.890165 -0.449682
H -2.601194 -0.890235 -0.449564
H -2.293964 0.000069 1.071970
H -0.283649 2.071742 -0.353072
H -0.182949 1.289034 1.248728
H 1.843407 1.160190 -1.023879
H 2.136068 1.199110 0.722203
H 1.843034 -1.159998 -1.024252
H 2.136258 -1.199349 0.721736
H -0.182779 -1.288793 1.248914
H -0.283719 -2.071803 -0.352732