22

H 1.354004 -0.000062 0.000000
C 0.266395 -0.000042 0.000000
C -0.396168 -0.000028 1.253842
O 0.515018 -0.000020 2.293709
C -0.025719 0.000016 3.599976
C 1.127076 0.000025 4.580604
O -1.593899 0.000013 1.518620
C -0.396168 -0.000028 -1.253842
O 0.515018 -0.000020 -2.293709
C -0.025719 0.000016 -3.599976
C 1.127076 0.000025 -4.580604
O -1.593899 0.000013 -1.518620
H -0.669980 0.882935 3.742995
H -0.670002 -0.882881 3.743035
H 0.753237 0.000052 5.613509
H 1.755228 -0.890572 4.437895
H 1.755248 0.890601 4.437855
H -0.670002 -0.882881 -3.743035
H -0.669980 0.882935 -3.742995
H 0.753237 0.000052 -5.613509
H 1.755248 0.890601 -4.437855
H 1.755228 -0.890572 -4.437895