28

C -2.328155 -0.394930 -0.007420
C -1.001759 -1.042528 0.071165
N -0.022945 -0.533570 0.693449
C 1.222069 -1.262547 0.718320
C 2.404467 -0.431799 0.259104
C 2.302219 0.943027 0.034183
C 3.418433 1.678045 -0.371629
C 4.647645 1.048070 -0.556667
C 4.756224 -0.326704 -0.335558
C 3.642248 -1.058921 0.067790
C -3.350560 -1.010743 -0.737472
C -4.608843 -0.416020 -0.827976
C -4.850842 0.798697 -0.187392
C -3.833273 1.418120 0.545271
C -2.578330 0.825646 0.635861
H -0.912675 -2.014024 -0.453365
H 1.409959 -1.567676 1.762817
H 1.176298 -2.192971 0.119861
H 1.339293 1.433834 0.178080
H 3.323504 2.751557 -0.544533
H 5.518705 1.623826 -0.873650
H 5.713418 -0.830422 -0.481180
H 3.731313 -2.135319 0.235992
H -3.156473 -1.962280 -1.238150
H -5.401385 -0.901595 -1.399216
H -5.834642 1.265650 -0.257689
H -4.023960 2.367924 1.047403
H -1.772002 1.292002 1.204013