34

F 1.602320 2.114620 -1.141486
B 0.839349 2.133055 0.036833
F 1.644101 1.734470 1.127669
F 0.432355 3.468732 0.260380
C -0.529343 1.237566 -0.056946
N -0.649401 -0.169901 -0.031619
C 0.398258 -1.090269 0.027252
O 1.525266 -0.535991 -0.366743
C 2.821814 -1.128268 -0.072111
C 2.995793 -2.416809 -0.868034
C 3.800215 -0.058783 -0.535983
C 2.947729 -1.347492 1.431582
O 0.243913 -2.237846 0.373489
C -1.797800 1.748091 -0.071289
C -2.750281 0.664819 -0.058551
C -1.999880 -0.533947 -0.018903
C -2.615701 -1.790748 -0.002296
C -4.007215 -1.824785 -0.022069
C -4.770254 -0.643781 -0.055556
C -4.152331 0.600793 -0.074423
H 2.833072 -2.223285 -1.938208
H 4.021848 -2.788636 -0.736396
H 2.291364 -3.186056 -0.531344
H 3.610149 0.868018 0.019199
H 4.830957 -0.399534 -0.366381
H 3.658976 0.144427 -1.606229
H 2.260041 -2.126722 1.782670
H 3.976174 -1.654643 1.667642
H 2.728602 -0.403503 1.949575
H -2.026118 2.811073 -0.066120
H -2.025301 -2.702975 0.030903
H -4.514685 -2.790845 -0.008063
H -5.859546 -0.708695 -0.066957
H -4.744910 1.517363 -0.102194