16

C -2.524425 -0.304730 -0.014176
C -1.245895 0.523802 0.040638
C 0.016086 -0.328510 -0.037019
C 1.299491 0.488440 0.012125
N 2.470551 -0.373643 -0.098326
H -3.420799 0.328913 0.040205
H -2.576346 -0.883215 -0.949012
H -2.565235 -1.019745 0.821418
H -1.240132 1.252650 -0.787100
H -1.226890 1.117032 0.970251
H 0.019330 -1.053551 0.796808
H 0.013315 -0.924617 -0.965152
H 1.305037 1.192846 -0.836150
H 1.288268 1.110882 0.929746
H 3.317442 0.192016 -0.068770
H 2.520607 -0.971718 0.726624