52

P -0.116706 0.049017 -0.953766
C 0.813794 -1.478781 -0.387561
C 1.985845 -1.821699 -1.321400
C 2.607264 -3.169156 -0.948145
C 3.040667 -3.196131 0.517455
C 1.872571 -2.859034 1.444226
C 1.254759 -1.507679 1.078804
C -1.763516 -0.091496 -0.038832
C -2.838490 0.650902 -0.851702
C -4.195296 0.645640 -0.149039
C -4.656629 -0.783129 0.130681
C -3.599913 -1.547658 0.924828
C -2.234624 -1.526142 0.232331
C 0.679384 1.421884 0.051887
C 2.120226 1.674922 -0.409709
C 2.776527 2.827539 0.352410
C 1.949890 4.106580 0.245094
C 0.522269 3.864819 0.728839
C -0.141788 2.716110 -0.033298
H 0.073946 -2.285341 -0.532871
H 1.636761 -1.834320 -2.365489
H 2.761911 -1.040441 -1.260713
H 1.862326 -3.966353 -1.117922
H 3.461898 -3.388318 -1.606393
H 3.464842 -4.178693 0.774478
H 3.843847 -2.453480 0.668954
H 1.100737 -3.643903 1.355742
H 2.202596 -2.854664 2.494439
H 2.006223 -0.716539 1.248110
H 0.405412 -1.278589 1.743185
H -1.648654 0.414054 0.938169
H -2.521224 1.682279 -1.067887
H -2.932846 0.149314 -1.831458
H -4.111860 1.196163 0.804691
H -4.939291 1.179906 -0.759471
H -5.616018 -0.782936 0.670148
H -4.831161 -1.298986 -0.829747
H -3.496644 -1.087381 1.923116
H -3.918358 -2.588675 1.088461
H -2.301316 -2.075926 -0.724802
H -1.507651 -2.064367 0.857581
H 0.699020 1.105397 1.110371
H 2.723892 0.763757 -0.288272
H 2.111587 1.906493 -1.490218
H 2.871492 2.546640 1.415944
H 3.797549 2.991995 -0.024423
H 2.419989 4.919951 0.818610
H 1.924377 4.433270 -0.809273
H 0.543102 3.616531 1.804343
H -0.081907 4.779274 0.627038
H -0.257612 3.000057 -1.095432
H -1.154012 2.553627 0.366266