14

C 2.081589 0.013392 -0.180853
C 0.690580 -0.042402 0.388514
O -0.032272 1.126878 0.061109
C -1.384967 0.764510 -0.158534
C -1.387138 -0.758650 0.045499
O -0.035722 -1.101159 -0.169147
H 2.619345 0.875975 0.232334
H 2.630403 -0.902695 0.072423
H 2.017087 0.113183 -1.272470
H 0.710609 -0.154016 1.493912
H -2.050828 1.280515 0.549147
H -1.672300 1.042836 -1.183676
H -1.693706 -1.021240 1.073577
H -2.017035 -1.301405 -0.668705