37

C 5.905845 -0.904837 0.861836
C 4.789396 -1.005654 -0.170539
C 3.569071 -0.174077 0.213582
C 2.461455 -0.290774 -0.825015
N 1.284243 0.506368 -0.468754
C 1.151103 1.866530 -0.642940
C -0.056706 2.216453 -0.116964
N -0.628994 1.064499 0.375289
C -1.977811 0.933905 0.918038
C -2.964784 0.477159 -0.166523
H -3.062067 1.292877 -0.900220
C -4.321410 0.117178 0.461596
C -4.217197 -1.397629 0.655081
C -3.471524 -1.826608 -0.604477
N -2.486191 -0.756562 -0.794923
C 0.196291 0.044819 0.144611
H 6.241910 0.136347 0.976637
H 5.563038 -1.256977 1.846071
H 6.774817 -1.510219 0.570298
H 5.158695 -0.673402 -1.154412
H 4.486286 -2.058325 -0.292377
H 3.181444 -0.504687 1.190948
H 3.856617 0.884473 0.321922
H 2.801592 0.055886 -1.809792
H 2.127008 -1.330654 -0.932585
H 1.920001 2.463929 -1.123205
H -0.553023 3.179517 -0.049024
H -1.941436 0.198124 1.732135
H -2.261059 1.907231 1.336839
H -4.522187 0.670984 1.389474
H -5.127467 0.347152 -0.249595
H -3.618289 -1.634648 1.548275
H -5.192760 -1.888429 0.762504
H -2.980832 -2.804734 -0.494882
H -4.177835 -1.897704 -1.451099
H -2.240413 -0.623799 -1.770602
H 0.000190 -0.991873 0.401687