31

O -1.369540 -0.514228 2.512136
C -1.715402 -0.385053 1.344762
C -1.193669 -1.061322 0.215485
C -0.009873 -1.973042 0.392647
C 1.280273 -1.204942 0.237090
C 1.848854 -0.543238 1.335710
C 2.994190 0.229626 1.189363
C 3.589627 0.353261 -0.075449
C 4.779471 1.147848 -0.234052
N 5.734989 1.786307 -0.360589
C 3.027868 -0.295660 -1.185116
C 1.882199 -1.065436 -1.021864
C -1.760527 -0.906870 -1.073492
O -2.795442 0.005726 -1.176780
C -2.853699 1.032397 -0.204721
C -1.743246 2.052707 -0.443462
C -4.230030 1.653067 -0.314289
O -2.754180 0.495845 1.101087
O -1.458468 -1.509891 -2.094829
H -0.044760 -2.425038 1.394462
H -0.051298 -2.773723 -0.359269
H 1.364377 -0.631458 2.310092
H 3.434479 0.739179 2.047321
H 3.492651 -0.192449 -2.166438
H 1.427511 -1.561106 -1.881767
H -1.847360 2.481066 -1.449075
H -1.819139 2.858199 0.298804
H -0.755493 1.579757 -0.357278
H -4.987517 0.877632 -0.141052
H -4.344037 2.445699 0.436116
H -4.369511 2.078410 -1.316371