32

O 0.925177 -2.262116 -0.363329
C 0.877776 -1.028245 -0.193714
C 2.229862 -0.324055 -0.041123
C 3.330052 -1.109226 0.326504
C 4.598424 -0.550244 0.476368
C 4.793863 0.811985 0.241556
C 3.711231 1.603405 -0.145216
C 2.441930 1.040050 -0.283475
C -0.259688 -0.201554 -0.090634
H -0.088099 0.845607 0.135324
C -1.624563 -0.646517 -0.266114
N -2.630281 0.283620 0.001259
C -4.005545 -0.091534 -0.268428
C -4.670649 -0.805848 0.904586
C -2.409915 1.587103 0.596785
C -2.144121 2.687466 -0.427826
O -1.969923 -1.772616 -0.653525
H 3.158166 -2.174667 0.484700
H 5.440392 -1.178994 0.773218
H 5.786057 1.253409 0.352063
H 3.856760 2.666393 -0.346908
H 1.612225 1.671392 -0.605475
H -4.566193 0.821943 -0.524983
H -4.018418 -0.745482 -1.149577
H -5.720072 -1.047991 0.680516
H -4.131695 -1.739922 1.114673
H -4.650582 -0.179606 1.809601
H -3.305069 1.842765 1.186668
H -1.583070 1.528232 1.318438
H -1.240718 2.457066 -1.011173
H -2.987440 2.773849 -1.129182
H -2.004255 3.661809 0.062496