22

O 0.584563 2.097383 -0.041605
C 1.208997 1.027511 -0.048331
C 0.769190 -0.323376 -0.021792
C -0.564199 -0.818029 -0.034433
O -1.536921 0.141423 0.021271
C -2.874386 -0.321729 0.001847
C -3.782974 0.884639 0.095738
O -0.888877 -2.004410 -0.087708
C 1.932960 -1.283961 -0.083193
C 3.135587 -0.409227 0.319058
C 2.748511 0.996106 -0.140193
H -3.061935 -0.891629 -0.922803
H -3.044775 -1.017969 0.838541
H -4.836669 0.574576 0.078765
H -3.596457 1.434885 1.028627
H -3.606100 1.567345 -0.747098
H 1.811816 -2.151994 0.585286
H 2.083804 -1.702024 -1.099207
H 3.231450 -0.415464 1.416650
H 4.089609 -0.765133 -0.096852
H 3.023941 1.167126 -1.196588
H 3.193084 1.813507 0.446821