12

C 2.152142 -0.009194 -0.000045
C 0.656629 0.013533 -0.000006
C -0.184299 1.103519 0.000127
N -1.454932 0.587706 -0.000206
H -2.318437 1.117776 -0.000430
C -1.343264 -0.762029 0.000205
N -0.087256 -1.143340 -0.000011
H 2.536210 -0.535137 0.886295
H 2.536124 -0.535956 -0.885933
H 2.558819 1.009853 -0.000521
H 0.010820 2.171463 0.000173
H -2.215469 -1.413530 0.000243