16

C 1.719556 -1.280648 0.000000
C 0.243551 -1.755796 0.000000
N -0.574328 -0.575928 0.000000
C -2.014995 -0.418803 0.000000
C -2.129875 1.141288 0.000000
N -0.759226 1.681795 0.000000
C 0.000000 0.659491 0.000000
S 1.757887 0.559694 0.000000
H 2.255043 -1.632156 0.888735
H 2.255043 -1.632156 -0.888735
H 0.043491 -2.376820 -0.888687
H 0.043491 -2.376820 0.888687
H -2.471525 -0.878572 -0.891547
H -2.471525 -0.878572 0.891547
H -2.677377 1.502863 -0.883429
H -2.677377 1.502863 0.883429