19

C -3.413519 -0.048416 0.000165
C -1.926966 0.082855 -0.000025
C -1.135846 1.207236 -0.000283
C 0.233119 0.766640 -0.000089
C 1.481640 1.416514 -0.000076
C 2.640654 0.652722 0.000056
C 2.584367 -0.757262 0.000166
C 1.368979 -1.428092 0.000146
C 0.200986 -0.653869 0.000029
N -1.118591 -1.032592 -0.000144
H -3.761678 -0.598191 -0.886865
H -3.761703 -0.595936 0.888583
H -3.879278 0.943716 -0.001095
H -1.498400 2.232115 -0.000476
H 1.535217 2.506962 -0.000185
H 3.613339 1.147354 0.000050
H 3.512367 -1.331485 0.000238
H 1.322253 -2.518034 0.000193
H -1.452476 -1.988328 0.000030