40

C -3.474025 -1.230641 1.226612
C -2.362222 -0.276672 1.743878
N -1.766439 0.484255 0.644160
C -2.771093 1.406485 0.111524
C -4.076070 0.660892 -0.278156
C -3.782376 -0.844349 -0.227388
C -2.539589 -1.116672 -1.085822
C -1.319260 -0.462322 -0.385568
C -0.351064 0.173235 -1.392144
C 0.898314 0.728286 -0.759790
C 1.003263 2.079998 -0.509614
C 2.142393 2.637067 0.120735
C 3.183864 1.829005 0.502646
C 3.126811 0.427757 0.266219
C 4.199226 -0.425662 0.649536
C 4.142990 -1.778683 0.419452
C 3.005345 -2.340973 -0.210548
C 1.954068 -1.541547 -0.593555
C 1.976625 -0.134122 -0.368220
H -3.144307 -2.280560 1.269022
H -4.381194 -1.149545 1.843738
H -2.769727 0.444275 2.468742
H -1.566412 -0.837611 2.256648
H -2.965966 2.176481 0.872815
H -2.342182 1.927394 -0.756363
H -4.894040 0.904295 0.417586
H -4.408313 0.951548 -1.286101
H -4.642124 -1.416967 -0.603258
H -2.376711 -2.197288 -1.216357
H -2.684922 -0.685106 -2.090781
H -0.762063 -1.243132 0.158481
H -0.104851 -0.589312 -2.147105
H -0.871230 0.977579 -1.934344
H 0.183112 2.738293 -0.805290
H 2.185121 3.712473 0.300190
H 4.068189 2.246018 0.988842
H 5.072217 0.019802 1.131504
H 4.971795 -2.422291 0.718011
H 2.965312 -3.415606 -0.394813
H 1.090178 -1.997011 -1.079081