52

C 4.562056 0.826161 -0.233481
N 3.134116 0.634194 -0.147933
C 2.254876 1.651391 -0.289320
O 2.524838 2.829578 -0.430663
C 0.852046 1.075230 -0.197118
H 0.316035 1.306608 -1.137809
C 0.070660 1.679054 1.001286
C -1.026421 2.625620 0.582567
C -2.358323 2.384147 0.935952
C -3.372933 3.253253 0.530315
C -3.065870 4.374984 -0.239248
C -1.739878 4.621697 -0.601836
C -0.728056 3.753037 -0.195493
N 1.106250 -0.337565 -0.084574
C 0.109428 -1.264549 -0.073430
C -1.208358 -0.997455 -0.244892
C -2.292777 -1.982319 -0.203271
C -3.611661 -1.541466 -0.419580
C -4.687495 -2.426287 -0.392562
C -4.476880 -3.783323 -0.147598
C -3.174061 -4.238515 0.071819
C -2.098974 -3.354936 0.046677
C 2.524084 -0.686156 -0.011197
C 2.985201 -1.657531 -1.129708
C 4.026016 -2.564102 -0.474740
C 3.435729 -2.787345 0.921191
C 2.922876 -1.398667 1.318477
H 4.744277 1.904897 -0.297497
H 5.071137 0.429416 0.656322
H 4.977319 0.339329 -1.128843
H -0.356480 0.851399 1.583551
H 0.781365 2.202545 1.659791
H -2.604151 1.501941 1.533137
H -4.406893 3.050245 0.814911
H -3.857623 5.054365 -0.558898
H -1.492419 5.496716 -1.205588
H 0.312432 3.935250 -0.478952
H 0.452641 -2.289203 0.100325
H -1.519280 0.034909 -0.424629
H -3.787933 -0.479949 -0.611240
H -5.698190 -2.050960 -0.563843
H -5.316581 -4.479232 -0.125869
H -2.992246 -5.297068 0.267272
H -1.095334 -3.744128 0.227852
H 2.118989 -2.262933 -1.435629
H 3.330309 -1.108351 -2.016553
H 4.191050 -3.495937 -1.031769
H 4.996440 -2.048290 -0.393737
H 2.598407 -3.500773 0.853868
H 4.158147 -3.195391 1.640266
H 3.720325 -0.822175 1.808803
H 2.069285 -1.417803 2.008741