21

C 3.209893 -0.051650 1.607530
Si 2.521158 0.385620 -0.084740
H 2.827631 1.809444 -0.408946
C 3.241332 -0.746763 -1.399420
C 0.637987 0.230994 -0.064019
C -0.195613 1.346605 -0.229621
C -1.585892 1.232918 -0.199617
C -2.153569 -0.022793 0.000009
Cl -3.888222 -0.182672 0.045406
C -1.359824 -1.156243 0.166695
C 0.026142 -1.017910 0.133203
H 4.306295 0.036062 1.618021
H 2.800238 0.613549 2.381123
H 2.947189 -1.087638 1.870205
H 2.987057 -1.796043 -1.185737
H 2.849539 -0.493689 -2.394953
H 4.337725 -0.661728 -1.425340
H 0.242883 2.335492 -0.386023
H -2.226928 2.105579 -0.328250
H -1.827382 -2.129147 0.319917
H 0.636579 -1.916083 0.265890