30

F 0.233196 0.610421 -1.196918
C -0.003001 -0.043283 0.015312
S -1.428866 -1.051618 -0.264896
O -1.500577 -2.050944 0.808927
C -2.772602 0.103432 -0.028180
C -3.187610 0.877682 -1.109551
C -4.215662 1.800505 -0.920255
C -4.817333 1.928733 0.332984
C -4.395484 1.137047 1.403654
C -3.362718 0.217182 1.228565
O -1.540110 -1.504535 -1.658841
S 1.408018 -1.088759 0.298096
O 1.656496 -2.083808 -0.760754
C 2.728486 0.111781 0.170319
C 3.105864 0.819402 1.309109
C 4.142623 1.746210 1.210259
C 4.781702 1.951097 -0.014642
C 4.391510 1.231206 -1.145744
C 3.357623 0.300124 -1.057562
O 1.372992 -1.573631 1.682250
H -2.709290 0.748402 -2.081341
H -4.550916 2.417692 -1.754894
H -5.622527 2.650746 0.476338
H -4.873341 1.237159 2.379263
H -3.014402 -0.414108 2.047268
H 2.593030 0.633482 2.254029
H 4.454388 2.308580 2.091466
H 5.592485 2.677422 -0.088531
H 4.896696 1.392694 -2.098987
H 3.037878 -0.283193 -1.921812