48

C 0.712890 -4.096855 0.400922
C -0.249991 -3.260621 0.808087
C -0.048546 -1.987474 1.552080
Sn -0.036259 -0.333991 0.106789
C -0.000547 1.589916 1.117470
C 0.002040 2.762814 0.135789
C 0.042888 4.129945 0.817231
C 0.040186 5.291105 -0.170060
C 1.773203 -0.572220 -1.067153
C 3.038061 -0.277211 -0.259203
C 4.331165 -0.501431 -1.041543
C 5.582702 -0.200872 -0.224689
C -1.844600 -0.484465 -1.085746
C -3.113157 -0.412917 -0.233855
C -4.403744 -0.471150 -1.050395
C -5.658828 -0.418346 -0.186510
H 0.480456 -4.990661 -0.180893
H 1.764471 -3.909883 0.641187
H -1.286473 -3.496395 0.533010
H -0.850211 -1.807415 2.282748
H 0.917289 -1.971679 2.079445
H -0.873240 1.653166 1.788218
H 0.892479 1.628887 1.763010
H 0.867236 2.682375 -0.547732
H -0.893466 2.716206 -0.510432
H -0.820815 4.213511 1.498232
H 0.940894 4.181572 1.455741
H 0.072684 6.261947 0.344325
H 0.910104 5.237691 -0.842390
H -0.864534 5.272386 -0.796742
H 1.793138 -1.608511 -1.443590
H 1.720899 0.083038 -1.951897
H 3.019242 0.766407 0.104360
H 3.062852 -0.907915 0.648511
H 4.355712 -1.545864 -1.395619
H 4.313762 0.127903 -1.947338
H 6.499472 -0.374908 -0.805491
H 5.590756 0.847364 0.111237
H 5.627205 -0.837018 0.672548
H -1.838814 0.328571 -1.830471
H -1.816105 -1.428930 -1.653509
H -3.121368 -1.239312 0.500238
H -3.115643 0.516655 0.364380
H -4.407332 0.365320 -1.769294
H -4.401742 -1.393701 -1.655024
H -5.689922 -1.267188 0.513379
H -5.685113 0.505493 0.411368
H -6.573273 -0.450871 -0.795519