48

C -0.757334 0.122844 3.165464
C 0.270243 0.093585 2.305078
Si 0.000551 -0.002455 0.419148
Si 0.359459 2.135265 -0.508420
C 1.813030 3.004578 0.333470
C 0.730955 1.985523 -2.357719
C -1.185398 3.197694 -0.263143
Si 1.580394 -1.485704 -0.510217
C 1.646310 -3.088704 0.491400
C 1.088781 -1.909887 -2.287620
C 3.301731 -0.699825 -0.542481
Si -2.159882 -0.713970 -0.201812
C -3.557680 0.163840 0.727620
C -2.364684 -0.313791 -2.039754
C -2.344000 -2.576221 0.066986
C 1.694800 0.164616 2.800475
H -0.591580 0.202620 4.246871
H -1.796878 0.072744 2.832317
H 2.739639 2.416753 0.249844
H 1.986202 3.987429 -0.133039
H 1.603172 3.167131 1.401743
H -0.077177 1.461181 -2.889487
H 0.843148 2.985999 -2.804802
H 1.667280 1.431797 -2.528733
H -1.435842 3.269864 0.806701
H -1.022437 4.216905 -0.647543
H -2.053276 2.769418 -0.787550
H 0.660958 -3.577894 0.506363
H 2.371144 -3.789562 0.047900
H 1.946071 -2.902498 1.533297
H 0.982401 -1.003244 -2.902615
H 1.859342 -2.548083 -2.748391
H 0.134613 -2.457926 -2.315548
H 3.637735 -0.420600 0.467210
H 4.034029 -1.406512 -0.964317
H 3.307905 0.207726 -1.165826
H -3.392467 1.249806 0.785409
H -4.506234 -0.010997 0.195165
H -3.674286 -0.223826 1.750070
H -1.559286 -0.752612 -2.646654
H -3.326494 -0.704852 -2.407667
H -2.357861 0.775250 -2.200440
H -2.152984 -2.832871 1.120378
H -3.363863 -2.904457 -0.188433
H -1.636857 -3.144392 -0.556448
H 2.238262 -0.766236 2.569748
H 2.248245 0.978644 2.305602
H 1.739542 0.323866 3.888424