16

Cl -3.134640 -0.379468 0.000077
C -1.427237 0.004418 0.000098
C -1.049186 1.363298 0.000009
C 0.291213 1.712890 -0.000085
C 1.239200 0.679879 -0.000084
C 0.861941 -0.690623 -0.000016
C 2.076879 -1.455755 -0.000382
C 3.108080 -0.550134 0.000412
N 2.608616 0.726649 -0.000166
C -0.505389 -1.026651 0.000082
H -1.822179 2.131642 -0.000024
H 0.594624 2.760542 -0.000163
H 2.171653 -2.537723 -0.000654
H 4.181943 -0.719520 0.000707
H 3.166396 1.570960 -0.000260
H -0.836876 -2.065427 0.000041