38

O 0.168101 3.419445 0.372437
C -0.016553 2.225154 0.239561
C 0.998429 1.122689 0.510629
H 1.444009 1.278370 1.506283
C 2.114317 1.196897 -0.550190
C 3.130567 0.099635 -0.368372
C 3.064126 -1.077532 -1.122942
C 3.975868 -2.114182 -0.910590
C 4.966057 -1.985876 0.062229
C 5.040749 -0.816026 0.821669
C 4.129323 0.215841 0.607942
N 0.182717 -0.079311 0.480405
C -0.998883 0.175652 -0.329147
H -0.889911 -0.103478 -1.399031
C -2.193634 -0.547295 0.208222
C -2.499450 -1.046193 1.436601
C -3.831250 -1.570278 1.325429
C -4.230623 -1.346102 0.039539
C -5.479143 -1.642195 -0.711134
O -3.234394 -0.727160 -0.641257
N -1.131015 1.624575 -0.236380
C -2.298251 2.330306 -0.702292
H 1.659923 1.132168 -1.551823
H 2.591400 2.184306 -0.462043
H 2.296447 -1.179261 -1.894631
H 3.913963 -3.022784 -1.511875
H 5.681768 -2.792777 0.226712
H 5.815486 -0.706178 1.582361
H 4.192904 1.130392 1.203197
H 0.688773 -0.908488 0.178727
H -1.843712 -1.040594 2.301972
H -4.419677 -2.057662 2.098037
H -5.930215 -0.718435 -1.101855
H -5.277197 -2.305143 -1.564995
H -6.201376 -2.132440 -0.048595
H -3.184876 2.059685 -0.109773
H -2.102307 3.403352 -0.593005
H -2.496873 2.100866 -1.760204