35

C -0.203312 3.592600 0.037946
C 0.544570 2.311088 -0.176932
C -0.047568 1.110213 -0.289037
O 0.595928 -0.063676 -0.470970
Si 2.151862 -0.545014 0.035718
C 2.349452 -0.111686 1.843316
C 2.135075 -2.388487 -0.258351
C 3.456102 0.265816 -1.032679
O -1.380875 0.954802 -0.249704
Si -2.181711 -0.536472 -0.001780
C -3.962958 -0.009274 0.194216
C -1.976489 -1.644036 -1.492715
C -1.539496 -1.328632 1.568670
H 0.111786 4.097500 0.965011
H -0.035074 4.306097 -0.784422
H -1.282038 3.402660 0.104567
H 1.631743 2.343723 -0.263644
H 1.569590 -0.598483 2.447517
H 3.329952 -0.454208 2.207390
H 2.283079 0.973957 2.002413
H 1.967688 -2.603502 -1.324391
H 3.097551 -2.834418 0.033416
H 1.339691 -2.879958 0.320938
H 3.584347 1.335087 -0.814403
H 4.424760 -0.230195 -0.866130
H 3.198277 0.157256 -2.096799
H -4.314733 0.510915 -0.709019
H -4.609666 -0.883835 0.359921
H -4.078265 0.671470 1.050433
H -0.935534 -1.982684 -1.585065
H -2.630839 -2.524993 -1.406907
H -2.250521 -1.104006 -2.411427
H -1.473965 -0.581857 2.374838
H -2.219969 -2.127564 1.900126
H -0.542652 -1.766795 1.419298