37

C -0.239263 2.686290 1.099995
C 0.338529 2.122580 0.032995
N -0.068574 0.848535 -0.459172
O 0.999725 0.101760 -0.942069
Si 1.968561 -0.845728 0.119135
C 1.160631 -2.499719 0.454725
C 3.516323 -1.084205 -0.900866
C 2.306691 0.083234 1.707230
O -0.732195 0.105060 0.510770
Si -2.242500 -0.458637 -0.096483
C -1.909931 -1.481090 -1.623053
C -2.921578 -1.469786 1.317822
C -3.299848 1.036283 -0.465999
C 1.360248 2.795359 -0.834880
H -0.972935 2.150769 1.699829
H 0.021113 3.709472 1.370740
H 0.927969 -3.018089 -0.487443
H 1.844968 -3.140439 1.032295
H 0.232254 -2.376241 1.029807
H 4.009035 -0.121489 -1.101151
H 4.230083 -1.734277 -0.372920
H 3.275253 -1.555047 -1.865444
H 1.368543 0.277974 2.244888
H 2.965956 -0.521209 2.349778
H 2.801734 1.046730 1.515984
H -1.329519 -2.379609 -1.368172
H -2.851598 -1.799032 -2.095194
H -1.333331 -0.891476 -2.350508
H -3.008411 -0.856435 2.226682
H -3.922549 -1.851271 1.066158
H -2.275084 -2.331190 1.540041
H -2.786684 1.691845 -1.185061
H -4.265486 0.735276 -0.899236
H -3.496313 1.612379 0.450207
H 2.338778 2.301911 -0.742841
H 1.066181 2.735000 -1.892484
H 1.464141 3.847579 -0.546289