24

C -3.657555 -0.608327 0.248168
Si -1.966214 -0.119737 -0.358285
H -1.679403 -0.870884 -1.586065
C -1.874284 1.698215 -0.739445
C -0.679083 -0.615396 0.933617
C 0.712014 -0.336934 0.488601
C 1.325920 0.896417 0.784672
C 2.634152 1.151206 0.371079
C 3.353206 0.184593 -0.339944
C 2.751771 -1.042598 -0.636060
C 1.443622 -1.305983 -0.225712
H -4.429122 -0.354084 -0.497607
H -3.720554 -1.693643 0.429598
H -3.934336 -0.105235 1.186101
H -0.863671 1.974740 -1.084767
H -2.582927 1.970385 -1.538961
H -2.104274 2.330513 0.130017
H -0.921109 -0.090625 1.886633
H -0.834996 -1.699470 1.152579
H 0.774533 1.656637 1.334761
H 3.097973 2.109386 0.604165
H 4.372474 0.386019 -0.659631
H 3.307329 -1.799461 -1.189290
H 0.986491 -2.265117 -0.461408