46

C -2.811073 1.162754 -1.728622
C -2.786566 0.901820 -0.226525
Si -2.189742 -0.801082 0.314664
C -2.327199 -0.902114 2.177973
C -3.207378 -2.170717 -0.496276
C -4.712261 -2.098387 -0.258222
C -0.404856 -1.115178 -0.233919
C 0.701766 -0.367470 0.521117
C 2.090899 -0.878653 0.164857
C 3.067772 -0.943359 1.172702
C 4.354836 -1.401331 0.881563
C 4.682762 -1.799320 -0.418538
C 3.715554 -1.735096 -1.425691
C 2.426629 -1.277366 -1.137009
C 0.653439 1.132399 0.281609
C 0.459749 1.998541 1.369620
C 0.426241 3.381796 1.172570
C 0.586613 3.914333 -0.110052
C 0.777935 3.055433 -1.197200
C 0.811742 1.672202 -1.004296
H -1.804107 1.129689 -2.166437
H -3.430391 0.434018 -2.267464
H -3.222154 2.157266 -1.945612
H -2.134641 1.654024 0.278133
H -3.804102 1.046948 0.203795
H -3.378269 -0.834396 2.497640
H -1.926276 -1.854434 2.555568
H -1.775520 -0.088203 2.670454
H -2.994471 -2.141283 -1.589923
H -2.813846 -3.150877 -0.143592
H -4.968697 -2.171301 0.806769
H -5.146115 -1.162496 -0.635190
H -5.228651 -2.921214 -0.769676
H -0.228958 -2.212997 -0.151882
H -0.367325 -0.886693 -1.324217
H 0.550102 -0.558642 1.621719
H 2.823881 -0.634021 2.188471
H 5.105087 -1.448151 1.670358
H 5.685786 -2.156132 -0.644567
H 3.965757 -2.042389 -2.440713
H 1.681312 -1.233733 -1.930893
H 0.331282 1.594859 2.373109
H 0.274788 4.046118 2.022571
H 0.561545 4.991427 -0.262181
H 0.900657 3.465626 -2.198937
H 0.960090 1.010421 -1.856577