21

O 2.429793 -1.458166 0.001406
C 2.161278 -0.238965 0.000792
C 0.854761 0.310131 -0.000875
C -0.305216 -0.493598 -0.001508
O -1.487310 0.270355 -0.001724
C -2.748808 -0.468394 -0.000794
C -3.817952 0.605365 0.002832
O -0.470607 -1.719446 -0.000827
C 0.698282 1.800998 -0.001879
C 3.346822 0.702530 0.001765
H -2.774222 -1.102318 -0.902854
H -2.771408 -1.105517 0.899107
H -4.821668 0.160941 0.002568
H -3.742449 1.252523 0.885952
H -3.743926 1.256938 -0.877157
H 1.162416 2.253723 -0.887370
H -0.356193 2.106839 -0.003126
H 1.160635 2.254785 0.883999
H 3.341211 1.356564 -0.879000
H 3.338909 1.357655 0.881703
H 4.296687 0.157535 0.003345