19

C 3.806878 0.013154 -0.000222
C 2.362048 0.376559 -0.000587
C 1.380881 -0.538741 0.000683
C -0.054973 -0.232721 0.000353
C -0.978922 -1.296489 0.000009
C -2.351366 -1.041904 -0.000317
C -2.824378 0.274766 -0.000285
C -1.914843 1.336678 0.000079
C -0.540415 1.087708 0.000401
H 4.074739 -0.587552 -0.882399
H 4.459853 0.895461 -0.001055
H 4.074744 -0.585895 0.883077
H 2.152157 1.448747 -0.001993
H 1.623582 -1.605901 0.002026
H -0.622177 -2.325624 -0.000019
H -3.056689 -1.872528 -0.000594
H -3.894768 0.471116 -0.000539
H -2.278579 2.363884 0.000115
H 0.157682 1.924239 0.000704