18

C 3.220901 -0.610854 0.000003
C 1.791647 -0.183069 -0.000008
C 1.501012 1.217934 0.000005
C 0.207829 1.699123 0.000011
C -0.847607 0.763206 0.000005
N -2.246026 0.946624 0.000009
C -2.781203 -0.291742 -0.000003
N -1.792159 -1.298518 -0.000010
H -1.941539 -2.297299 -0.000016
C -0.549711 -0.643901 -0.000007
C 0.772013 -1.124826 -0.000013
H 3.756455 -0.229927 0.883166
H 3.345295 -1.702610 -0.000382
H 3.756694 -0.229277 -0.882731
H 2.338624 1.916862 0.000011
H -0.007871 2.766784 0.000021
H -3.842226 -0.523244 -0.000003
H 0.972577 -2.193246 -0.000021