41

C -0.593595 -0.200619 -0.523874
N -1.947406 -0.215604 -0.978488
C -2.592215 -1.553738 -1.167946
C -3.090057 -2.169402 0.150064
C -4.031951 -1.207959 0.886732
C -3.392018 0.176212 1.055441
C -2.895173 0.721649 -0.293360
C -0.067353 1.149136 -0.163467
C 0.126867 2.119088 -1.158909
C 0.631508 3.375755 -0.815256
C 0.939753 3.668966 0.517466
C 0.744908 2.702063 1.508937
C 0.242570 1.441773 1.172619
C 0.206315 -1.293685 -0.525359
C 1.644989 -1.300942 -0.253479
C 2.166230 -2.253480 0.644326
C 3.536689 -2.301231 0.902830
C 4.406675 -1.408257 0.267466
C 3.896741 -0.465868 -0.630589
C 2.525952 -0.410815 -0.892944
H -3.443970 -1.404441 -1.869573
H -1.884842 -2.241983 -1.679975
H -3.605670 -3.126279 -0.056715
H -2.228309 -2.423391 0.797235
H -4.985921 -1.116370 0.331779
H -4.298343 -1.624260 1.876859
H -4.120173 0.882253 1.497971
H -2.550280 0.120706 1.772464
H -2.422566 1.717573 -0.161074
H -3.753790 0.876198 -0.985578
H -0.115993 1.890337 -2.196609
H 0.784550 4.129157 -1.588247
H 1.331481 4.650766 0.782613
H 0.985041 2.930588 2.547533
H 0.094766 0.687020 1.944750
H -0.204405 -2.284745 -0.736189
H 1.495435 -2.951988 1.141284
H 3.930994 -3.038093 1.602482
H 5.474832 -1.448569 0.470445
H 4.571484 0.229119 -1.130206
H 2.136507 0.323759 -1.596006