14

C -2.501390 -0.545450 -0.000024
C -1.094725 -0.069122 -0.000025
N -0.737704 1.264383 0.000060
C 0.660147 1.250004 0.000058
C 1.102938 -0.086354 0.000003
C 2.497190 -0.587414 -0.000044
N -0.005877 -0.934704 -0.000018
H -2.716084 -1.163945 -0.882665
H -2.716954 -1.161263 0.884283
H -3.220190 0.284110 -0.001630
H 1.237403 2.147471 0.000105
H 2.705007 -1.209276 0.881778
H 2.705284 -1.208289 -0.882498
H 3.225644 0.233462 0.000526