37

C -5.414975 0.873332 -2.268442
C -4.236059 0.160994 -1.762932
S -3.539906 0.629805 -0.194628
C -3.518329 -0.863129 -2.285351
C -2.401320 -1.294804 -1.453846
C -2.277823 -0.604125 -0.304908
B -1.350329 -0.573732 0.977233
C 0.159298 -0.250769 0.549725
C 0.593700 1.072494 0.488777
C 1.900726 1.361962 0.059959
C 2.330128 2.797609 -0.007409
F 2.294081 3.448110 1.171651
F 3.575893 3.043710 -0.450316
F 1.568743 3.569571 -0.807918
C 2.774856 0.330406 -0.298015
C 2.328343 -0.998619 -0.222701
C 3.282458 -2.091424 -0.605425
F 3.775787 -1.994379 -1.855503
F 4.390563 -2.157175 0.158662
F 2.812110 -3.350077 -0.564275
C 1.024265 -1.291257 0.199438
O -1.902444 0.487858 1.877750
C -2.326661 -0.121040 3.089971
C -2.172221 -1.644572 2.915771
O -1.404684 -1.855272 1.738249
H -6.281475 0.776855 -1.593911
H -5.231932 1.953750 -2.387683
H -5.738925 0.498053 -3.252733
H -3.722197 -1.346687 -3.230335
H -1.756841 -2.101223 -1.771434
H -0.092735 1.871585 0.781956
H 3.792156 0.547053 -0.632112
H 0.663094 -2.320890 0.266841
H -1.691514 0.281066 3.898084
H -3.371827 0.189012 3.256886
H -1.612883 -2.120243 3.739147
H -3.140659 -2.157425 2.786805