23

C 2.898757 -1.298306 0.426235
C 3.432919 0.041573 -0.112460
N 2.436619 1.135958 -0.070290
C 1.188698 0.812126 -0.066085
S -0.135607 2.011678 0.022210
C -1.366783 0.759998 0.020354
C -2.740116 0.933143 0.075753
C -3.552889 -0.208391 0.061933
C -2.986366 -1.488276 -0.007574
C -1.601580 -1.673211 -0.065600
C -0.785435 -0.534390 -0.050114
N 0.622007 -0.492426 -0.112858
C 1.532941 -1.666368 -0.177787
H 3.623812 -2.109647 0.215727
H 2.821205 -1.250464 1.531980
H 4.308565 0.376406 0.489580
H 3.792376 -0.071886 -1.161088
H -3.182877 1.929036 0.129129
H -4.635753 -0.098469 0.105340
H -3.639872 -2.363846 -0.017442
H -1.176172 -2.672054 -0.122754
H 1.642911 -1.974233 -1.243732
H 1.084261 -2.523806 0.372013