29

C -4.121474 -0.348413 -0.060532
N -3.097886 -0.251879 1.014631
C -2.143082 -1.381140 1.006683
C -1.395721 -1.611807 -0.293979
O -1.715255 -2.283739 -1.238791
O -0.144346 -1.043087 -0.343456
B 0.363365 0.222558 -0.198301
O -0.444168 1.330261 -0.295327
C -1.799030 1.555172 -0.212984
O -2.294725 2.170129 -1.119890
C -2.444564 1.073578 1.073635
C 1.878008 0.453760 -0.053066
O 2.710948 -0.681444 -0.015573
C 4.021990 -0.189727 0.114873
C 5.052810 -1.228427 0.172786
C 4.007849 1.184413 0.156779
C 2.631617 1.594843 0.048953
H -4.654777 -1.312309 0.026917
H -4.875535 0.447167 0.080428
H -3.738558 -0.268724 -1.090196
H -1.420885 -1.269175 1.855646
H -2.720203 -2.315777 1.246868
H -3.227048 1.824086 1.372100
H -1.702086 1.091409 1.912167
H 5.765261 -1.144780 -0.666608
H 5.646344 -1.164588 1.101600
H 4.629811 -2.246544 0.132532
H 4.848130 1.844842 0.251686
H 2.287879 2.614286 0.051367