16

O 2.407703 1.352630 -0.179067
C 2.410427 0.104992 -0.092505
O 3.332272 -0.641001 -0.490406
C 1.197145 -0.584748 0.568933
N 0.007918 0.285422 0.504763
C -1.217198 -0.196646 0.100071
C -2.351102 0.822998 0.000428
N -3.661135 0.212406 -0.323701
O -1.396363 -1.395757 -0.131338
H 1.000672 -1.566383 0.083862
H 1.445281 -0.810144 1.631328
H 0.200172 1.285864 0.608888
H -2.445901 1.391193 0.957820
H -2.106921 1.587356 -0.777322
H -3.599949 -0.294352 -1.207977
H -3.905364 -0.484882 0.380894