21

C 1.585224 -1.066439 1.011439
N 1.169023 -0.293001 -0.198863
C 2.313278 0.488980 -0.755683
C -0.019523 0.518688 0.061671
N 0.086472 1.808695 0.228239
N -1.227654 -0.259359 0.185875
C -1.341942 -1.483502 -0.655587
C -2.490644 0.532274 0.173439
H 2.000104 -0.443859 1.819718
H 0.730175 -1.630032 1.420065
H 2.353989 -1.799403 0.714721
H 3.097826 -0.218952 -1.068888
H 1.983262 1.045752 -1.647702
H 2.756758 1.213059 -0.054801
H -0.756229 2.373664 0.305851
H -2.221509 -2.065543 -0.333127
H -1.445844 -1.266088 -1.730396
H -0.456784 -2.128785 -0.524768
H -2.671890 1.075468 -0.767927
H -3.348168 -0.142918 0.340190
H -2.494934 1.253280 1.008638