23

O -2.319135 0.051819 -1.834168
S -2.570241 -0.649048 -0.566389
C -1.324279 -1.220830 0.234434
H -1.517992 -2.021990 0.958255
C 0.026559 -0.831313 0.134237
C 1.004652 -1.445026 0.976532
C 2.334642 -1.079108 0.915334
C 2.765878 -0.083632 0.011291
C 4.199288 0.286248 -0.026162
F 5.045266 -0.722672 -0.331519
F 4.567228 1.244749 -0.899082
F 4.706311 0.746260 1.138935
C 1.818845 0.528254 -0.830854
C 0.484244 0.164616 -0.774372
C -3.212150 0.771045 0.486322
F -2.293063 1.697044 0.784835
F -4.208441 1.463821 -0.079540
F -3.702893 0.393957 1.672914
O -3.758455 -1.515665 -0.602769
H 0.684788 -2.213090 1.678015
H 3.058579 -1.565280 1.573927
H 2.127523 1.298770 -1.541443
H -0.224045 0.647173 -1.450491