15

O -2.357128 1.053380 -0.361124
C -1.790101 -0.005892 0.008619
O -2.283437 -1.144760 -0.189326
C -0.453168 0.099668 0.742753
C 0.711073 -0.013707 -0.242472
C 2.063082 0.060330 0.489947
N 3.247483 -0.048320 -0.407275
H -0.405402 1.058266 1.292128
H -0.390066 -0.692627 1.511601
H 0.638557 -0.963871 -0.807277
H 0.646410 0.792205 -0.999556
H 2.140793 1.018063 1.051046
H 2.129568 -0.750038 1.249639
H 3.218866 -0.925736 -0.926268
H 3.228095 0.690626 -1.109871