21

C 1.772560 -0.899152 1.534458
Si 1.231661 -0.002176 -0.000005
C -0.652294 0.075269 -0.000019
C -1.499812 1.163013 0.000013
C -2.856465 0.668137 -0.000013
C -2.775972 -0.697462 -0.000029
O -1.439639 -1.102814 0.000030
C 1.821113 1.761026 -0.000417
C 1.772591 -0.899888 -1.534026
H 1.379615 -1.928464 1.558101
H 2.871586 -0.962459 1.587448
H 1.425363 -0.389644 2.447461
H -1.236437 2.204888 0.000013
H -3.737060 1.280098 -0.000018
H -3.465688 -1.511318 -0.000039
H 2.923366 1.796693 -0.000490
H 1.473004 2.310193 -0.889636
H 1.473108 2.310574 0.888607
H 1.379590 -1.929189 -1.557220
H 1.425469 -0.390778 -2.447279
H 2.871616 -0.963281 -1.586930