17

S -1.990082 1.514905 -0.189770
C -1.190757 0.005200 0.068250
S -2.092219 -1.457381 -0.117599
N 0.097736 -0.023808 0.412729
C 0.909719 -1.271779 0.535365
C 2.091678 -1.202464 -0.444599
O 2.880342 -0.017184 -0.208115
C 2.114078 1.199090 -0.338138
C 0.931655 1.195230 0.640512
H 1.275855 -1.352823 1.586701
H 0.307054 -2.187847 0.343645
H 2.819490 -2.017220 -0.268754
H 1.762853 -1.213107 -1.499305
H 2.853902 1.982187 -0.084693
H 1.790345 1.312933 -1.388076
H 0.345664 2.136464 0.539838
H 1.296530 1.171500 1.696023