49

C 3.581798 -0.926719 -1.337798
C 2.865785 0.081227 -0.422596
C 3.768897 1.316228 -0.250259
O 1.705533 0.517743 -1.107056
B 0.458554 0.106968 -0.377196
C -0.436530 1.417833 -0.122402
C -1.137442 1.573607 1.079840
C -1.931977 2.701893 1.297043
C -2.035479 3.688113 0.308554
C -1.338860 3.535658 -0.894998
C -0.543880 2.405192 -1.108735
C -0.383909 -0.995034 -1.264218
C 0.409747 -2.277492 -1.473598
C -1.689587 -1.274087 -0.587326
C -2.907585 -1.052108 -1.254273
C -4.124612 -1.331765 -0.624851
C -4.146163 -1.839392 0.675837
C -2.938161 -2.058019 1.351877
C -1.724624 -1.777618 0.728469
O 0.947074 -0.432276 0.929565
C 2.358124 -0.537522 0.948904
C 2.696291 -2.027452 1.127641
C 2.839919 0.233217 2.192197
H 4.429916 -1.404539 -0.843688
H 2.876237 -1.708217 -1.663398
H 3.952737 -0.439511 -2.243528
H 4.012302 1.755374 -1.222525
H 3.276988 2.097229 0.335773
H 4.708976 1.060880 0.245612
H -1.058362 0.799091 1.839741
H -2.472556 2.817184 2.233833
H -2.652700 4.565489 0.475518
H -1.417150 4.299886 -1.665200
H 0.002335 2.291374 -2.040995
H -0.543266 -0.493247 -2.241670
H -0.148394 -3.028120 -2.037492
H 1.348135 -2.067063 -2.012024
H 0.707342 -2.715395 -0.506930
H -2.905808 -0.658109 -2.267500
H -5.059483 -1.154676 -1.154126
H -5.091726 -2.061322 1.162531
H -2.951668 -2.446109 2.368827
H -0.776535 -1.913067 1.253980
H 2.159153 -2.626197 0.375851
H 3.766089 -2.223982 1.039074
H 2.365820 -2.387337 2.106432
H 2.378929 -0.172662 3.097964
H 3.924491 0.169464 2.310904
H 2.564066 1.290429 2.143095