28

N -0.378785 0.011414 -0.233039
C -1.103377 1.277931 0.123840
C -2.562785 1.217097 -0.351665
C -3.284430 -0.007561 0.220197
C -2.512912 -1.282189 -0.137066
C -1.052289 -1.204894 0.335177
C 1.029937 0.066207 -0.035125
C 1.799793 1.167130 0.122012
C 3.266289 0.831617 0.104251
C 3.330812 -0.703984 -0.093383
C 1.866190 -1.196876 -0.156143
H -1.065428 1.476476 1.217196
H -0.589512 2.127203 -0.379719
H -3.083254 2.147137 -0.053610
H -2.595861 1.190368 -1.458563
H -3.382733 0.084735 1.318816
H -4.316511 -0.062182 -0.174122
H -2.996649 -2.167446 0.318073
H -2.545345 -1.445510 -1.232109
H -0.511127 -2.110525 -0.015484
H -1.011932 -1.210066 1.446502
H 1.483913 2.184457 0.243162
H 3.790046 1.364105 -0.708854
H 3.757797 1.138436 1.044225
H 3.872610 -0.961052 -1.017606
H 3.875569 -1.188019 0.732528
H 1.648885 -1.907537 0.660306
H 1.657661 -1.727341 -1.102041