30

C -0.814740 -2.685692 -1.059689
C -1.154201 -1.259911 -1.482677
Si -0.716003 0.066179 -0.227097
C 1.153806 0.041160 0.029121
C 2.142498 0.795470 -0.566188
C 3.412387 0.358666 -0.035467
C 3.141163 -0.640791 0.858793
O 1.765141 -0.867134 0.927706
C -1.155267 1.733789 -0.971944
C -0.799295 2.955868 -0.132216
C -1.499647 -0.222050 1.451888
C -3.021608 -0.317578 1.462746
H 0.253040 -2.810406 -0.832816
H -1.376071 -2.998781 -0.168893
H -1.057808 -3.398132 -1.859066
H -0.649251 -1.016864 -2.446621
H -2.246388 -1.174382 -1.695870
H 2.027951 1.577111 -1.295211
H 4.367709 0.761448 -0.309732
H 3.707755 -1.275706 1.502513
H -0.677979 1.809857 -1.976996
H -2.254290 1.716440 -1.171613
H -1.295563 2.948111 0.847504
H 0.281129 3.035591 0.049385
H -1.107490 3.880369 -0.638621
H -1.054456 -1.157114 1.869947
H -1.162719 0.593901 2.134126
H -3.499246 0.601525 1.097827
H -3.390204 -1.146932 0.843892
H -3.393775 -0.489050 2.481746