21

C -1.898672 -0.916487 -1.532418
Si -1.419819 0.027474 0.000032
C 0.429615 0.254006 -0.000020
C 1.196275 1.380527 -0.000114
C 2.625164 1.129167 -0.000174
C 2.945951 -0.190739 -0.000028
S 1.488772 -1.146184 0.000046
C -2.206407 1.716619 0.000048
C -1.898590 -0.916479 1.532511
H -1.466719 -1.929349 -1.542136
H -2.993170 -1.022770 -1.597689
H -1.559587 -0.400613 -2.444708
H 0.815685 2.396261 -0.000189
H 3.337889 1.943700 -0.000264
H 3.919032 -0.650486 -0.000013
H -3.305023 1.635479 0.000022
H -1.915944 2.297537 0.889270
H -1.915905 2.297576 -0.889135
H -1.466782 -1.929404 1.542124
H -1.559301 -0.400694 2.444776
H -2.993094 -1.022607 1.597933