20

C -2.857188 -1.002777 0.000126
N -1.453185 -0.506519 -0.000092
C -1.264558 0.903569 -0.000090
O -2.221252 1.676576 0.000105
N 0.059779 1.397136 -0.000066
C 0.307346 2.859114 0.000022
C 1.138136 0.496128 -0.000039
N 2.483327 0.754968 -0.000011
C 3.054342 -0.538395 0.000222
N 2.159163 -1.558549 0.000050
C 0.906814 -0.923859 -0.000104
C -0.398618 -1.499311 -0.000262
O -0.735090 -2.677901 -0.000022
H -3.578167 -0.166846 0.000082
H -3.040216 -1.622902 0.894724
H -3.040390 -1.623145 -0.894267
H -0.645580 3.418773 0.000071
H 0.883554 3.150520 -0.895970
H 0.883578 3.150407 0.896036
H 4.126734 -0.672269 0.000240