31

C -2.853314 0.537908 -0.162570
C -1.757047 -0.434880 0.263458
C -2.160191 -1.872088 -0.058497
P -0.097459 0.008952 -0.637608
C 0.558130 1.517386 0.386584
C 1.993645 1.836989 -0.023371
C -0.338850 2.733136 0.168728
C 1.040909 -1.463794 -0.098799
C 2.357925 -1.400180 -0.866676
C 1.278142 -1.524297 1.407514
H -3.798367 0.298384 0.344007
H -2.617789 1.583965 0.099614
H -3.065431 0.505721 -1.238407
H -1.596916 -0.340954 1.364432
H -2.307498 -2.048643 -1.131684
H -1.436843 -2.613446 0.305363
H -3.117687 -2.116457 0.423410
H 0.539591 1.242314 1.468683
H 2.071167 2.199302 -1.056684
H 2.405768 2.631623 0.613159
H 2.674281 0.974445 0.072298
H -1.393457 2.545448 0.433877
H -0.006416 3.571125 0.796496
H -0.321717 3.098518 -0.865972
H 0.496102 -2.393538 -0.408503
H 2.985931 -2.269182 -0.627044
H 2.222732 -1.407258 -1.955082
H 2.953783 -0.507461 -0.610927
H 0.348045 -1.600498 1.983985
H 1.875414 -2.409915 1.666376
H 1.835099 -0.658851 1.788495