14

O -2.383988 1.099533 -0.093081
C -1.782691 -0.000001 -0.000010
O -2.383989 -1.099532 0.093092
C -0.270123 -0.000001 -0.000005
C 0.432546 1.210880 0.036117
C 1.830292 1.211148 0.038044
C 2.529407 0.000001 0.000003
C 1.830294 -1.211147 -0.038041
C 0.432548 -1.210881 -0.036123
H -0.119763 2.151163 0.061285
H 2.375073 2.153940 0.068760
H 3.619545 0.000002 0.000004
H 2.375077 -2.153938 -0.068751
H -0.119759 -2.151165 -0.061296