24

C 2.422877 -0.813337 -1.529412
Si 1.768841 0.001231 -0.000016
C 2.423565 -0.815597 1.527890
C 2.144206 1.814189 0.001185
O 0.133721 -0.200336 0.000321
C -1.168177 -0.224915 0.000156
C -2.062943 -1.233497 0.000026
C -3.446129 -0.644735 -0.000114
C -3.192304 0.880180 -0.000022
O -1.720068 1.068195 0.000137
H 2.191618 -1.888937 -1.561433
H 2.023896 -0.356881 -2.448172
H 3.522655 -0.702013 -1.545961
H 3.523250 -0.703447 1.544673
H 2.024203 -0.361179 2.447491
H 2.193133 -1.891437 1.557881
H 1.744704 2.326685 -0.886938
H 1.747870 2.324737 0.891856
H 3.242687 1.942913 -0.000640
H -1.878071 -2.286499 0.000010
H -4.027221 -0.963384 -0.885308
H -4.027435 -0.963456 0.884913
H -3.540336 1.394572 -0.907241
H -3.540524 1.394493 0.907169