26

F -1.229465 1.694463 -1.264451
C -0.828954 0.847913 -0.299339
C -1.672560 -0.231179 -0.038198
O -2.793446 -0.218210 -0.864912
C -3.794359 -1.262610 -0.674960
C -4.745993 -0.866518 0.435615
O -1.528008 -1.151166 0.772367
S 0.583694 1.265527 0.440504
O 0.420951 1.347692 1.917040
C 1.761529 0.036311 0.123538
C 2.931877 0.356127 -0.571098
C 3.886100 -0.632565 -0.830384
C 3.668719 -1.942574 -0.390566
C 2.498741 -2.263655 0.306940
C 1.546182 -1.273596 0.563686
O 1.088647 2.549406 -0.117332
H -4.275791 -1.282067 -1.670166
H -3.284966 -2.221108 -0.476698
H -4.234440 -0.811523 1.405260
H -5.199622 0.115689 0.255672
H -5.563718 -1.592079 0.536172
H 3.105795 1.381506 -0.914490
H 4.797308 -0.381798 -1.373183
H 4.412656 -2.715827 -0.591905
H 2.329848 -3.284526 0.649286
H 0.626170 -1.534568 1.103323