46

C 2.486653 5.557713 1.685149
O 1.553268 5.370658 0.589905
C 1.270246 4.083796 0.191296
C 0.362545 4.034487 -0.887334
C -0.008249 2.790877 -1.391905
C 1.799959 2.921955 0.763904
C 1.407020 1.682403 0.243339
C 0.512311 1.619857 -0.823430
P -0.007712 -0.000338 -1.599636
C 1.141732 -1.258165 -0.828111
C 2.393116 -1.427894 -1.436359
C 3.291056 -2.365140 -0.932047
C 2.909387 -3.133904 0.187269
O 3.886166 -4.019980 0.581270
C 3.615380 -4.873952 1.722887
C 1.660784 -2.976855 0.799734
C 0.777078 -2.023654 0.278189
C -1.666868 -0.368248 -0.818760
C -2.371694 -1.472333 -1.319059
C -3.630501 -1.783228 -0.812152
C -4.174060 -0.963492 0.199067
O -5.420946 -1.379580 0.608332
C -6.087989 -0.617786 1.647748
C -3.482547 0.143912 0.702361
C -2.214892 0.433036 0.180989
H 2.095417 5.104800 2.600766
H 3.469509 5.155591 1.422208
H 2.520920 6.651914 1.771697
H -0.028675 4.957897 -1.307385
H -0.709288 2.761316 -2.231819
H 2.500226 2.963929 1.592978
H 1.823279 0.777995 0.698041
H 2.695116 -0.838551 -2.307728
H 4.269146 -2.515278 -1.382734
H 4.545576 -5.452652 1.800067
H 3.454398 -4.270715 2.621036
H 2.763301 -5.528227 1.516353
H 1.369740 -3.572098 1.660245
H -0.196655 -1.904018 0.763484
H -1.958615 -2.110815 -2.106081
H -4.196879 -2.635652 -1.179598
H -7.031674 -1.167202 1.763618
H -5.505043 -0.643218 2.573033
H -6.270478 0.407322 1.312208
H -3.904992 0.774382 1.479235
H -1.679337 1.299251 0.582185