12

C 1.859872 -0.142352 0.031124
N 0.514959 0.496548 -0.126209
N -0.514959 -0.496548 0.126209
C -1.859872 0.142352 -0.031124
H 2.058657 -0.564980 1.027930
H 1.993795 -0.948583 -0.708098
H 2.626049 0.624119 -0.173501
H 0.420483 1.219493 0.615549
H -0.420483 -1.219493 -0.615549
H -2.058657 0.564980 -1.027930
H -2.626049 -0.624119 0.173501
H -1.993795 0.948583 0.708098