12

N 2.661726 -0.084330 -0.026092
C 1.274538 0.440670 -0.163197
C 0.184795 -0.581550 0.179623
C -1.223475 -0.012817 0.026681
O -1.408874 1.226685 0.078222
O -2.160969 -0.837453 -0.132555
H 2.825710 -0.407929 0.927028
H 2.791097 -0.902324 -0.621608
H 1.170617 1.335197 0.490147
H 1.139869 0.801268 -1.206675
H 0.284214 -1.485007 -0.450668
H 0.300010 -0.942569 1.220437