34

O -2.050634 2.487541 -0.772534
C -2.069389 1.366962 -0.275903
C -1.294845 0.778176 0.738457
C -0.100393 1.511758 1.268632
C 1.191483 0.982599 0.694510
C 1.880820 1.698135 -0.299873
C 3.074618 1.213238 -0.827664
C 3.579719 -0.009201 -0.344486
O 4.767299 -0.374868 -0.949083
C 5.393763 -1.610900 -0.521384
C 2.912311 -0.743128 0.642376
C 1.715082 -0.234433 1.153036
C -1.629710 -0.473193 1.286078
O -2.706286 -1.176313 0.674114
C -3.116162 -0.848660 -0.669798
C -2.137765 -1.447299 -1.662143
C -4.555390 -1.301331 -0.795945
O -3.132626 0.587582 -0.809977
O -1.203141 -1.085312 2.257999
H -0.202352 2.597634 1.056907
H -0.073154 1.433269 2.377448
H 1.480498 2.645017 -0.664968
H 3.615888 1.757323 -1.597700
H 4.739767 -2.462834 -0.729147
H 6.291599 -1.644072 -1.152441
H 5.661257 -1.557483 0.538046
H 3.303847 -1.686509 1.012762
H 1.170679 -0.796736 1.916701
H -2.095569 -2.540976 -1.574618
H -2.423596 -1.215270 -2.696788
H -1.117985 -1.069483 -1.515984
H -5.198093 -0.828536 -0.041495
H -4.968753 -1.048225 -1.781955
H -4.645781 -2.388485 -0.666311