32

C 0.408110 2.792881 0.176525
C -0.523064 1.596655 0.406182
C -1.955449 1.957740 -0.008420
Si 0.083445 -0.005796 -0.435181
H 0.187345 0.198453 -1.891102
C 1.797457 -0.495344 0.257597
C 2.197041 -1.924766 -0.131875
C 2.895015 0.493036 -0.155866
C -1.121536 -1.456837 -0.145035
C -1.357892 -1.743718 1.341906
C -2.453338 -1.278739 -0.883366
H 0.100608 3.649690 0.789024
H 1.455345 2.566998 0.441589
H 0.401041 3.129570 -0.867668
H -0.529346 1.367310 1.509932
H -2.016360 2.272324 -1.057959
H -2.655597 1.115411 0.122448
H -2.337404 2.790022 0.595696
H 1.702254 -0.457114 1.379369
H 1.518312 -2.677144 0.289177
H 2.224421 -2.070668 -1.219249
H 3.201918 -2.162570 0.241883
H 2.657159 1.528061 0.145353
H 3.850867 0.235889 0.317923
H 3.068509 0.495428 -1.239088
H -0.600258 -2.352737 -0.594036
H -1.885679 -0.922498 1.843346
H -1.975028 -2.642351 1.472296
H -0.422318 -1.919095 1.888047
H -2.318406 -1.127391 -1.961557
H -3.089530 -2.164324 -0.761340
H -3.024153 -0.417566 -0.497441