22

O 0.849153 2.112015 -0.117535
C 1.329614 0.972197 -0.036785
C 0.693697 -0.289412 -0.066136
C -0.658839 -0.629645 -0.210888
O -1.510162 0.460255 -0.433480
C -2.943451 0.217218 -0.498131
C -3.536960 0.312157 0.894458
O -1.183823 -1.750382 -0.189287
C 1.708955 -1.397277 0.091509
C 3.090118 -0.710069 0.220704
C 2.842090 0.802553 0.129929
H -3.278506 1.033575 -1.163248
H -3.128974 -0.763300 -0.970146
H -4.629820 0.215678 0.868669
H -3.151758 -0.476600 1.552296
H -3.303291 1.271425 1.371964
H 1.491194 -2.013848 0.980592
H 1.689658 -2.081199 -0.774571
H 3.574333 -0.975428 1.174916
H 3.774559 -1.048173 -0.574492
H 3.375639 1.260327 -0.719346
H 3.194271 1.336109 1.027833