23

C -4.544240 0.521202 -0.002415
C -3.541011 -0.360712 0.000132
C -2.134710 0.031590 0.003245
C -1.142486 -0.877090 0.002866
O 0.135762 -0.477346 0.004954
Si 1.651101 0.067817 -0.000499
C 2.519258 -0.654964 -1.472811
C 1.638979 1.919733 -0.104816
C 2.468172 -0.483155 1.571854
H -5.584809 0.231346 -0.004934
H -4.405324 1.592554 -0.002232
H -3.739058 -1.437623 -0.000236
H -1.914625 1.100892 0.005630
H -1.219527 -1.965233 0.000949
H 2.044085 -0.356505 -2.418919
H 3.560393 -0.287194 -1.483237
H 2.545724 -1.753740 -1.442163
H 1.129105 2.380061 0.753956
H 2.683977 2.277372 -0.112499
H 1.149589 2.281177 -1.020877
H 2.492991 -1.578237 1.666956
H 3.509360 -0.115274 1.574797
H 1.962835 -0.079893 2.461832