30

O 1.819019 -1.387675 1.740529
S 2.165737 -1.340890 0.286188
C 0.881629 -1.410775 -0.705266
H 1.054444 -1.874980 -1.678269
C -0.410909 -0.947698 -0.470315
C -1.409121 -1.047125 -1.499077
C -2.689758 -0.579850 -1.306295
C -3.068086 0.014572 -0.079850
C -4.449082 0.505766 0.090046
F -5.412851 -0.440977 0.011736
F -4.750722 1.123842 1.249831
F -4.863575 1.407657 -0.829269
C -2.109429 0.110295 0.949743
C -0.823966 -0.356181 0.765986
C 2.991998 0.174724 0.046664
C 2.309991 1.381378 0.224113
C 2.977191 2.597036 0.043888
C 4.329338 2.604037 -0.316566
C 5.012239 1.397177 -0.497631
C 4.341083 0.183411 -0.314505
O 3.155298 -2.419470 -0.029588
H -1.131630 -1.501655 -2.446496
H -3.423745 -0.668181 -2.110742
H -2.380053 0.555273 1.909996
H -0.109321 -0.293057 1.587800
H 1.251795 1.388476 0.502183
H 2.444493 3.537233 0.184158
H 4.850751 3.552535 -0.456187
H 6.064777 1.400932 -0.779327
H 4.877784 -0.760478 -0.455943