13

C 0.000690 1.938113 0.000000
C 0.000012 0.615972 0.000000
C -0.000242 -0.430209 1.093722
C -0.000242 -1.532536 0.000000
C -0.000242 -0.430209 -1.093722
H 0.001051 2.531821 0.901030
H 0.001051 2.531821 -0.901030
H 0.884287 -0.420298 1.742418
H -0.885125 -0.420074 1.741932
H 0.886209 -2.174712 0.000000
H -0.886492 -2.174978 0.000000
H -0.885125 -0.420074 -1.741932
H 0.884287 -0.420298 -1.742418