39

O -1.769145 0.750355 3.992419
C -1.524117 0.612329 2.768035
H -2.349434 0.889532 2.085044
C -0.321435 0.145531 2.265396
P -0.010669 0.004552 0.540979
C 1.219239 -1.317364 0.201815
C 0.995218 -2.244887 -0.816307
C 1.953910 -3.236083 -1.058933
C 3.119135 -3.289294 -0.287527
C 3.331897 -2.353024 0.730276
C 2.378583 -1.359587 0.980125
C -1.551041 -0.382325 -0.382435
C -2.347078 -1.429538 0.091549
C -3.526271 -1.751519 -0.587592
C -3.899946 -1.027206 -1.725855
C -3.097007 0.019751 -2.187515
C -1.913385 0.347830 -1.513984
C 0.689557 1.555859 -0.162099
C 0.469922 2.755445 0.515023
C 0.991423 3.943168 -0.013369
C 1.725240 3.917236 -1.202961
C 1.944137 2.705585 -1.868988
C 1.425975 1.515190 -1.348126
H 0.476076 -0.130973 2.941835
H 0.092093 -2.224991 -1.434174
H 1.790075 -3.967045 -1.851501
H 3.865031 -4.062940 -0.479788
H 4.241588 -2.396508 1.330166
H 2.568754 -0.639573 1.781706
H -2.076003 -2.007026 0.981041
H -4.155241 -2.567405 -0.229660
H -4.821613 -1.280941 -2.253405
H -3.390736 0.583712 -3.073577
H -1.303866 1.173200 -1.894947
H -0.096416 2.796241 1.451161
H 0.824805 4.887720 0.505260
H 2.129940 4.844218 -1.613701
H 2.519745 2.689047 -2.794935
H 1.614669 0.580029 -1.883722