42

O -2.521375 -1.934896 -0.174776
C -2.261891 -0.735651 -0.049555
C -1.034937 -0.031560 0.009961
H -1.073287 1.048347 0.083761
N 0.130235 -0.750700 -0.031475
C 1.311225 -0.178791 -0.006230
C 1.581281 1.282733 0.057167
C 2.067089 1.854565 1.243251
C 2.316495 3.227987 1.307282
C 2.085208 4.037818 0.190752
C 1.602699 3.469921 -0.993022
C 1.350646 2.097447 -1.062586
C 2.508529 -1.049831 -0.041832
C 2.558398 -2.238966 0.706675
C 3.693665 -3.051897 0.662635
C 4.791770 -2.688040 -0.122636
C 4.749609 -1.503910 -0.866799
C 3.617705 -0.688061 -0.828893
O -3.315979 0.177520 0.058527
C -4.732949 -0.222349 -0.001471
C -5.037358 -1.157943 1.164607
C -5.430862 1.131636 0.151752
C -5.011171 -0.860433 -1.359141
H 2.249616 1.225181 2.112465
H 2.692227 3.668789 2.230305
H 2.280450 5.107553 0.242509
H 1.424120 4.099398 -1.864406
H 0.976994 1.657525 -1.985445
H 1.707389 -2.525973 1.321751
H 3.723208 -3.972752 1.244768
H 5.675579 -3.322080 -0.154691
H 5.603943 -1.217713 -1.479963
H 3.590348 0.231344 -1.412314
H -4.780998 -0.702627 2.126829
H -6.098131 -1.427298 1.197545
H -4.458777 -2.088109 1.081910
H -5.161161 1.818332 -0.658373
H -6.520310 1.016262 0.141454
H -5.156855 1.621903 1.092787
H -4.441900 -1.792388 -1.478008
H -6.072464 -1.100642 -1.480758
H -4.723728 -0.199196 -2.183309