46

C -0.128194 -1.582764 0.146230
C -1.529348 -1.709021 0.763767
N -2.364460 -0.547989 0.356269
C -1.710210 0.658359 -0.018096
N -0.446411 0.908084 -0.012012
C 0.489047 -0.181607 0.377532
H 0.722159 -0.058243 1.469593
C 1.784840 0.008346 -0.463159
C 2.529480 1.279159 -0.100309
C 2.720887 1.667176 1.234052
C 3.426342 2.835599 1.534128
C 3.949151 3.626573 0.506739
C 3.761876 3.243381 -0.825075
C 3.056288 2.076419 -1.129455
C 2.725848 -1.173333 -0.332786
C 3.149636 -1.838852 -1.493749
C 4.027404 -2.922554 -1.403161
C 4.488263 -3.352081 -0.155029
C 4.068630 -2.691019 1.003755
C 3.192488 -1.605908 0.917689
S -2.943285 1.841724 -0.547789
C -4.254882 0.708379 -0.265656
C -5.609236 0.926407 -0.460154
C -6.495760 -0.122333 -0.180945
C -6.020390 -1.356275 0.283308
C -4.655722 -1.585420 0.484568
C -3.766548 -0.539441 0.205632
H 0.530231 -2.364475 0.577159
H -0.169961 -1.802614 -0.940039
H -2.011348 -2.657982 0.437606
H -1.472386 -1.732476 1.877432
H 1.459351 0.089373 -1.538491
H 2.314673 1.061766 2.044136
H 3.567909 3.130166 2.573870
H 4.497630 4.536931 0.742070
H 4.165893 3.857539 -1.629705
H 2.915377 1.789079 -2.170827
H 2.797821 -1.511921 -2.472134
H 4.353235 -3.432873 -2.309614
H 5.172184 -4.196581 -0.085659
H 4.427300 -3.021488 1.978622
H 2.877870 -1.094391 1.826601
H -5.981544 1.886426 -0.821697
H -7.565406 0.024181 -0.326712
H -6.730583 -2.159509 0.494067
H -4.301082 -2.546291 0.849612