35

C 0.901483 2.438327 -0.667471
N 1.630563 1.206851 -1.056835
C 0.784876 0.003567 -1.440607
N 1.630409 -1.201652 -1.062649
C 0.901099 -2.434815 -0.679122
C 2.615641 -0.716500 -0.133090
C 3.550415 -1.428972 0.603575
C 4.498601 -0.700246 1.345968
C 4.498704 0.693470 1.349314
C 3.550621 1.425890 0.610434
C 2.615735 0.717100 -0.129629
C -0.611563 0.002106 -0.830556
C -1.727404 0.004577 -1.680323
C -3.016846 0.003272 -1.149353
C -3.181504 -0.000591 0.246259
C -2.070838 -0.003150 1.108929
C -0.789436 -0.001781 0.562698
N -4.534916 -0.002001 0.812719
O -5.491049 0.000371 0.045953
O -4.661955 -0.005584 2.031409
H 0.425361 2.401163 0.325509
H 1.613246 3.283487 -0.667861
H 0.122773 2.662813 -1.416413
H 0.726887 0.006304 -2.565466
H 0.122350 -2.655619 -1.429117
H 1.612702 -3.280098 -0.683484
H 0.424970 -2.402229 0.314016
H 3.557649 -2.516574 0.613171
H 5.242730 -1.243495 1.928938
H 5.242915 1.233805 1.934883
H 3.558012 2.513432 0.625254
H -1.595416 0.007567 -2.766681
H -3.892869 0.005206 -1.807655
H -2.217520 -0.006180 2.194905
H 0.080341 -0.003789 1.226315