26

C -3.046156 -0.691278 -0.145220
C -1.857089 0.272890 -0.146621
C -1.587426 0.816432 1.254680
C -0.631745 -0.441160 -0.759875
O 0.285675 0.514316 -1.326296
C 1.469842 0.648855 -0.493121
H 2.307001 0.528477 -1.215322
C 1.477914 2.021672 0.149407
C 1.370891 -0.519427 0.523806
H 1.251338 -0.172841 1.572436
C 2.478778 -1.545438 0.387522
O 0.122323 -1.199061 0.197196
H -2.841243 -1.587729 0.452681
H -3.938813 -0.218223 0.281416
H -3.309306 -1.021231 -1.156762
H -2.091571 1.135251 -0.824622
H -1.281440 0.017866 1.941254
H -0.780493 1.568165 1.243461
H -2.477409 1.295065 1.677151
H -0.888234 -1.140455 -1.581754
H 0.586715 2.181287 0.783513
H 2.366436 2.172337 0.774619
H 1.470267 2.815496 -0.609047
H 3.454010 -1.123118 0.661234
H 2.300115 -2.409057 1.043095
H 2.558582 -1.938608 -0.634029