22

C 2.098178 -0.968909 -1.523839
Si 1.682738 -0.004215 0.000054
O 0.048778 0.280471 -0.000832
C -1.241808 0.267226 -0.000408
C -2.220612 1.231642 -0.000171
C -3.473781 0.515081 0.000215
C -3.191481 -0.822279 0.000184
O -1.796278 -1.037032 -0.000278
C 2.099055 -0.954952 1.532451
C 2.500155 1.658015 -0.007723
H 1.823176 -0.433137 -2.445301
H 3.188952 -1.145904 -1.547393
H 1.597781 -1.949366 -1.543497
H -2.094569 2.294617 -0.000230
H -4.442468 0.981329 0.000485
H -3.747908 -1.732222 0.000350
H 3.189739 -1.132409 1.556597
H 1.825282 -0.410467 2.449164
H 1.598063 -1.934869 1.561713
H 2.234357 2.246556 -0.899313
H 2.234888 2.254525 0.878721
H 3.596137 1.517901 -0.007416