48

C 0.856265 -4.141000 0.755284
C -0.226570 -3.381159 0.945376
C -0.230375 -2.093299 1.657191
Sn 0.003520 -0.494929 0.185757
C 0.080874 1.378852 1.272585
C -0.126680 2.563541 0.347103
C -0.090785 3.895930 1.118510
C -0.301210 5.092473 0.193954
C 1.825447 -0.849406 -0.931993
C 2.956337 0.048315 -0.466118
C 4.245897 -0.206335 -1.268449
C 5.387806 0.696755 -0.808830
C -1.687058 -0.532812 -1.169493
C -2.989143 -0.256361 -0.440791
C -4.191195 -0.281752 -1.403046
C -5.504601 0.002798 -0.678551
H 0.837006 -5.075348 0.219302
H 1.838334 -3.884750 1.118257
H -1.200462 -3.693402 0.552883
H -1.165181 -1.905410 2.197018
H 0.587264 -1.986278 2.379653
H -0.684851 1.340077 2.055736
H 1.049543 1.430035 1.782672
H 0.649815 2.580395 -0.443491
H -1.095974 2.476950 -0.183874
H -0.865254 3.890687 1.909428
H 0.875998 3.994857 1.648487
H -0.272712 6.035848 0.750581
H 0.472045 5.146960 -0.580848
H -1.269644 5.044178 -0.317109
H 2.077866 -1.910693 -0.814150
H 1.600014 -0.697639 -1.993555
H 2.671928 1.115229 -0.562588
H 3.160915 -0.110889 0.611248
H 4.542732 -1.268339 -1.171932
H 4.052484 -0.049474 -2.347043
H 6.299875 0.510902 -1.386946
H 5.137900 1.757510 -0.925525
H 5.631681 0.536467 0.247577
H -1.499140 0.208271 -1.954805
H -1.699360 -1.513050 -1.659517
H -3.150811 -1.002512 0.362566
H -2.949321 0.728821 0.065703
H -4.038784 0.459689 -2.210758
H -4.244838 -1.265455 -1.907873
H -5.705197 -0.738918 0.102950
H -5.496619 0.987312 -0.196920
H -6.353304 -0.014797 -1.371383