21

C -4.137238 0.651145 0.448015
C -3.093628 -0.261948 -0.160020
O -1.814645 0.300933 0.280291
C -0.654567 -0.302009 -0.214449
O -0.784469 -1.256064 -0.984774
C 0.494574 0.321134 0.281774
S 1.969092 -0.240482 -0.195597
C 2.839879 1.186009 -0.830812
C 2.885933 -0.512832 1.314996
H -4.066033 0.681233 1.543191
H -4.031666 1.685068 0.094649
H -5.150796 0.315449 0.191293
H -3.149654 -1.297842 0.214486
H -3.106910 -0.264758 -1.263171
H 0.371282 1.154669 0.963813
H 2.868078 2.048385 -0.151758
H 3.882211 0.934130 -1.077296
H 2.369552 1.535469 -1.763503
H 2.433759 -1.332931 1.894600
H 3.921595 -0.814256 1.096472
H 2.936306 0.355152 1.985613