26

H 0.801688 1.418529 -1.202827
C 0.732803 0.472250 -0.607985
C -0.720254 0.211815 -0.267865
C -1.125421 -0.974532 0.378131
N -2.417961 -1.236609 0.699419
C -3.358987 -0.306616 0.380529
C -3.039245 0.899315 -0.260340
C -1.704412 1.158226 -0.584060
C 1.362572 -0.691145 -1.418534
C 2.349864 -1.398537 -0.476896
C 2.224843 -0.692915 0.888341
N 1.493473 0.604250 0.689192
C 2.429354 1.766775 0.657763
H -0.390979 -1.743194 0.650574
H -4.392733 -0.549059 0.652961
H -3.818929 1.621153 -0.498943
H -1.435768 2.093546 -1.078395
H 0.595474 -1.387545 -1.797257
H 1.877976 -0.300733 -2.312666
H 2.126579 -2.475238 -0.390834
H 3.381278 -1.332261 -0.863998
H 1.616349 -1.298977 1.593255
H 3.209814 -0.546675 1.369178
H 1.853730 2.696461 0.522812
H 2.942976 1.841004 1.630322
H 3.197263 1.721687 -0.128970