18

O -2.879661 -0.347834 -0.759762
C -2.372672 0.607971 0.202728
C -1.155763 -0.068428 0.839355
N 0.038843 0.093485 -0.048531
C 1.185404 -0.743289 0.426283
C 2.418039 -0.438593 -0.433695
O 2.958958 0.859468 -0.126530
H -3.595179 0.064413 -1.290086
H -2.120993 1.548116 -0.319735
H -3.165678 0.802657 0.948074
H -0.930992 0.413084 1.818624
H -1.398690 -1.133413 1.058379
H -0.217397 -0.198610 -1.003581
H 1.400177 -0.488317 1.489104
H 0.975186 -1.836053 0.406940
H 3.256185 -1.122839 -0.202319
H 2.200077 -0.475109 -1.517001
H 2.240987 1.532636 -0.166371