17

N -1.449427 1.754584 -0.566617
C -1.157663 0.294874 -0.540336
C 0.155560 -0.087668 0.171900
C 1.382314 0.269031 -0.668220
C 2.665045 -0.141454 0.056940
O 3.200365 0.678899 0.844164
O 3.145671 -1.278530 -0.175333
C -2.337715 -0.434045 0.158018
O -2.796147 0.025096 1.228935
O -2.774612 -1.467406 -0.404079
H -1.696970 2.074461 0.371680
H -0.608889 2.270399 -0.829450
H -1.113043 -0.051050 -1.605285
H 0.211986 0.409848 1.159548
H 0.155469 -1.175103 0.388452
H 1.338374 -0.232169 -1.653179
H 1.411598 1.352634 -0.884751