43

C -4.887069 -1.815406 -0.953853
C -3.684521 -1.536391 -0.160288
S -2.453295 -0.424936 -0.800048
C -3.298967 -1.978887 1.061509
C -2.009508 -1.462522 1.501153
C -1.423318 -0.627168 0.621166
B -0.053567 0.149400 0.486628
C 1.152824 -0.870355 0.605611
C 1.638768 -1.759709 1.493056
C 2.784943 -2.518160 1.008159
C 3.162139 -2.205376 -0.255493
C 4.240235 -2.731547 -1.100969
S 2.107028 -0.919990 -0.884057
O 0.026610 0.764552 -0.870933
C 0.192783 2.177343 -0.746153
C 1.336326 2.578846 -1.683972
C -1.113236 2.830969 -1.220303
C 0.503628 2.427772 0.789305
C 2.002506 2.546381 1.098241
C -0.249637 3.616175 1.394792
O 0.018996 1.262834 1.462390
H -5.490436 -0.910145 -1.129808
H -4.646246 -2.229211 -1.946592
H -5.550144 -2.545547 -0.461967
H -3.863567 -2.659217 1.683211
H -1.592396 -1.756628 2.453123
H 1.240260 -1.935600 2.481020
H 3.259698 -3.261490 1.632618
H 3.861732 -3.156679 -2.044699
H 4.970091 -1.953908 -1.378671
H 4.808265 -3.532938 -0.601348
H 1.058169 2.423468 -2.731718
H 1.607231 3.631041 -1.561320
H 2.228424 1.968172 -1.504045
H -1.953712 2.549964 -0.578766
H -1.042752 3.921352 -1.240097
H -1.364644 2.492278 -2.231490
H 2.432450 3.467810 0.696917
H 2.174882 2.540702 2.178832
H 2.554788 1.697880 0.680412
H -1.333233 3.458286 1.374904
H 0.028648 3.768190 2.443131
H -0.031627 4.543175 0.855458