34

N -0.120061 1.548459 0.713854
C -0.715025 0.440626 1.503204
C -1.722470 -0.403561 0.756316
C -1.290300 -1.403199 -0.127093
C -2.224036 -2.183956 -0.813374
C -3.593411 -1.973495 -0.620438
C -4.026881 -0.980290 0.263225
C -3.095712 -0.196609 0.951169
C -1.084603 2.549460 0.128183
C -0.509484 2.848444 -1.283022
N 0.679434 1.965838 -1.434511
C 0.812150 1.234845 -0.353713
C 1.889223 0.245978 -0.146468
C 2.158074 -0.706023 -1.142689
C 3.182508 -1.637027 -0.953272
C 3.941375 -1.617295 0.221604
C 3.678150 -0.662753 1.209902
C 2.654139 0.270520 1.030226
H 0.114614 -0.200634 1.888095
H -1.180989 0.900632 2.408446
H -0.224413 -1.574995 -0.278521
H -1.883912 -2.959449 -1.499702
H -4.320134 -2.583093 -1.156163
H -5.093393 -0.816151 0.417507
H -3.442479 0.571808 1.641976
H -2.125198 2.177241 0.084815
H -1.078102 3.446297 0.779000
H -1.234620 2.641618 -2.095219
H -0.200130 3.908056 -1.387947
H 1.572365 -0.715157 -2.063367
H 3.391511 -2.378237 -1.725380
H 4.740513 -2.345200 0.366263
H 4.273782 -0.645143 2.123221
H 2.452794 1.018333 1.799008