24

C -2.830840 -0.366997 -1.540866
Si -2.113083 0.390135 0.000023
H -2.422226 1.826550 0.000115
C -2.830894 -0.367205 1.540785
C -0.251233 0.214108 0.000033
C 0.587461 1.338671 0.000080
C 1.979639 1.197598 0.000057
C 2.559591 -0.079039 -0.000013
C 4.043303 -0.245939 -0.000021
C 1.726800 -1.211190 -0.000052
C 0.338525 -1.062214 -0.000029
H -3.923353 -0.225382 -1.580300
H -2.406156 0.095466 -2.447134
H -2.641394 -1.448497 -1.608536
H -2.641523 -1.448730 1.608272
H -2.406176 0.095075 2.447132
H -3.923396 -0.225521 1.580244
H 0.167148 2.348178 0.000135
H 2.611455 2.083425 0.000093
H 4.384886 -0.805650 0.883266
H 4.384821 -0.806467 -0.882812
H 4.582889 0.710430 -0.000483
H 2.166425 -2.206432 -0.000102
H -0.284351 -1.961101 -0.000060