24

C -0.631366 0.084269 -0.032176
C 0.861425 0.041592 -0.027340
C 1.581617 1.046365 0.633309
C 2.978750 1.004849 0.638188
C 3.652960 -0.033109 -0.013620
C 2.930687 -1.033200 -0.673365
C 1.533536 -0.999679 -0.682609
N -1.242200 1.015251 -0.709846
C -2.715301 1.090316 -0.701136
C -3.418384 -0.203982 -0.260086
C -2.707338 -0.827979 0.948867
N -1.255646 -1.001770 0.648270
H 1.055126 1.858184 1.135673
H 3.542823 1.785128 1.149648
H 4.742885 -0.061892 -0.008773
H 3.457422 -1.840488 -1.182738
H 0.968598 -1.776846 -1.198042
H -3.015031 1.940149 -0.045653
H -3.033121 1.365119 -1.733142
H -4.478308 -0.004215 -0.013428
H -3.437775 -0.926402 -1.100306
H -2.864207 -0.201737 1.855288
H -3.128774 -1.833745 1.173072
H -0.724226 -1.414274 1.419248