42

C -2.638530 -0.276366 3.021624
C -1.609982 0.504341 2.685875
C -0.244452 0.001441 2.389475
Ge 0.063018 -0.006811 0.454374
C -0.573758 1.635282 -0.309957
C -1.395504 1.618696 -1.440120
C -1.852652 2.821036 -1.993453
C -1.488540 4.041391 -1.417108
C -0.666041 4.057613 -0.286375
C -0.208932 2.855768 0.266942
C 1.954119 -0.163876 0.155341
C 2.665603 -1.213617 0.744515
C 4.044088 -1.333449 0.531962
C 4.713589 -0.403958 -0.269889
C 4.001937 0.645315 -0.858664
C 2.623109 0.765081 -0.646146
C -0.848441 -1.497229 -0.339722
C -0.140746 -2.451136 -1.076465
C -0.814319 -3.534745 -1.653017
C -2.197011 -3.666095 -1.493945
C -2.904830 -2.711492 -0.757404
C -2.231462 -1.627886 -0.181083
H -2.576412 -1.350688 3.107114
H -3.625432 0.105020 3.234371
H -1.728269 1.591395 2.618091
H 0.522973 0.633490 2.879697
H -0.080984 -1.018721 2.790291
H -1.693755 0.677760 -1.907141
H -2.492792 2.803883 -2.874524
H -1.844019 4.976753 -1.847370
H -0.380267 5.006545 0.165507
H 0.431096 2.894236 1.150085
H 2.166077 -1.951812 1.374281
H 4.594878 -2.152704 0.992194
H 5.786210 -0.497306 -0.435066
H 4.519437 1.371592 -1.484041
H 2.088677 1.593272 -1.116303
H 0.939374 -2.370077 -1.215216
H -0.259077 -4.275868 -2.226257
H -2.720915 -4.509213 -1.942229
H -3.982160 -2.809954 -0.631232
H -2.804674 -0.896339 0.393469