29

C -3.608978 -0.290988 -0.026254
C -2.169069 -0.683972 0.001581
C -1.858036 -2.134844 0.148827
C -1.198370 0.246630 -0.124343
O 0.113980 0.005251 -0.062641
Si 1.719625 -0.213191 -0.013979
C 2.066249 -2.036579 -0.028392
C 2.475798 0.598032 -1.502062
C 2.371997 0.551220 1.546697
O -1.495773 1.567127 -0.405320
C -0.735677 2.574500 0.315827
H -4.156578 -0.728501 0.820005
H -3.747963 0.798909 0.018061
H -4.097039 -0.642145 -0.946789
H -2.436367 -2.740662 -0.562802
H -0.795398 -2.362464 -0.019102
H -2.109826 -2.489889 1.158782
H 1.677812 -2.525686 -0.933767
H 3.160418 -2.185466 -0.003920
H 1.635011 -2.548777 0.844182
H 2.299983 1.683093 -1.521883
H 3.566839 0.428876 -1.480250
H 2.085997 0.177272 -2.441053
H 1.928715 0.097207 2.445226
H 3.463842 0.390521 1.587564
H 2.185326 1.633912 1.589942
H -0.738235 2.366166 1.388682
H 0.284458 2.618231 -0.078922
H -1.290886 3.491049 0.084149