24

C 1.531996 0.000000 1.744591
Si 0.892302 0.000000 -0.013048
C 2.343671 0.000000 -1.193827
C -0.194742 -1.507209 -0.330161
C -1.617546 -1.285703 0.200802
C -2.279023 0.000000 -0.328132
C -1.617546 1.285703 0.200802
C -0.194742 1.507209 -0.330161
H 2.146858 0.888052 1.949702
H 0.691450 -0.000003 2.455562
H 2.146863 -0.888049 1.949700
H 2.975145 -0.888237 -1.041666
H 2.012962 0.000001 -2.242467
H 2.975146 0.888236 -1.041664
H -0.217659 -1.693873 -1.426321
H 0.250063 -2.417330 0.121343
H -2.246914 -2.154368 -0.081953
H -1.615890 -1.272018 1.310188
H -2.263917 0.000000 -1.434984
H -3.348338 0.000000 -0.041506
H -2.246914 2.154368 -0.081953
H -1.615890 1.272018 1.310188
H 0.250063 2.417330 0.121343
H -0.217659 1.693873 -1.426321