27

O 0.342713 -1.502623 1.633126
S 0.591784 -1.371432 0.158867
C -0.719955 -1.103756 -0.730557
H -0.738408 -1.543821 -1.725350
C -1.859394 -0.349750 -0.379879
C -2.885059 -0.122621 -1.345112
C -4.010764 0.627003 -1.031691
C -4.174050 1.180252 0.245026
C -3.183397 0.960746 1.208185
C -2.049308 0.212669 0.912654
C 1.704369 -0.031614 0.003705
C 1.251561 1.281951 0.143918
C 2.148034 2.349611 0.028633
C 3.500291 2.100168 -0.229449
C 3.954720 0.785261 -0.372842
C 3.054213 -0.278928 -0.254972
O 1.343740 -2.583558 -0.316544
H -2.773619 -0.544492 -2.338171
H -4.779280 0.789125 -1.787675
H -5.053237 1.766333 0.482086
H -3.303899 1.381273 2.206977
H -1.305610 0.040287 1.687928
H 0.195215 1.489926 0.340054
H 1.792946 3.373646 0.139128
H 4.200300 2.932275 -0.319393
H 5.007025 0.589382 -0.575426
H 3.410825 -1.307526 -0.370393