66

C 0.512654 -4.415385 1.324064
C -0.437313 -3.489583 1.482725
C -0.187204 -2.090129 1.912928
Si -0.110934 -0.884424 0.453602
C -0.019274 0.843112 1.201040
C 0.143191 1.993638 0.204822
C 0.181482 3.352305 0.926924
C 0.367816 4.509677 -0.062780
C 0.391154 5.866778 0.654696
C 0.585729 7.022008 -0.324561
C 1.385802 -1.256439 -0.628829
C 2.755418 -0.982722 -0.003441
C 3.892645 -1.398545 -0.953577
C 5.269391 -1.089868 -0.351160
C 6.405187 -1.533755 -1.283846
C 7.777973 -1.219768 -0.693699
C -1.628871 -1.081554 -0.646259
C -2.983885 -0.868425 0.032221
C -4.141016 -1.066597 -0.963089
C -5.502030 -0.824510 -0.297636
C -6.657525 -1.023803 -1.288607
C -8.014108 -0.770513 -0.635188
H 1.562874 -4.230373 1.483218
H 0.306948 -5.425870 1.011363
H -1.490630 -3.736267 1.304320
H -0.986187 -1.735782 2.604895
H 0.769976 -1.988647 2.476117
H -0.938946 0.992361 1.812623
H 0.824156 0.846942 1.929742
H 1.072365 1.865782 -0.387596
H -0.686723 1.993360 -0.530908
H -0.750734 3.495369 1.505806
H 0.998510 3.357826 1.673231
H 1.305600 4.370711 -0.634284
H -0.443040 4.497317 -0.816197
H -0.550510 6.009432 1.220203
H 1.199129 5.877956 1.412298
H 1.530695 6.933738 -0.872924
H -0.218363 7.062944 -1.068250
H 0.599082 7.986554 0.195402
H 1.308334 -2.327754 -0.930294
H 1.274259 -0.674250 -1.572265
H 2.858802 0.093071 0.246477
H 2.864170 -1.527160 0.956682
H 3.812716 -2.478152 -1.183476
H 3.779911 -0.879840 -1.924468
H 5.355991 -0.006271 -0.142127
H 5.373436 -1.589602 0.631013
H 6.323638 -2.619835 -1.485900
H 6.298707 -1.038885 -2.269018
H 7.907809 -0.145663 -0.518095
H 7.932061 -1.726062 0.266117
H 8.582292 -1.540855 -1.365187
H -1.513553 -0.375259 -1.500945
H -1.582199 -2.100065 -1.097208
H -3.108459 -1.569071 0.883018
H -3.045112 0.149768 0.467786
H -4.015112 -0.384447 -1.825354
H -4.101926 -2.088796 -1.385160
H -5.626945 -1.504786 0.566557
H -5.540208 0.198784 0.122977
H -6.528704 -0.349002 -2.157518
H -6.626274 -2.051118 -1.701594
H -8.191190 -1.448360 0.207688
H -8.094106 0.252824 -0.250692
H -8.832759 -0.916177 -1.348990