37

C -0.421281 2.746916 1.164074
C 0.128587 2.241654 0.059305
N -0.133718 0.853618 -0.428006
O 1.032843 0.131262 -0.225675
Si 2.323951 -0.756428 0.065321
C 1.844938 -2.551019 0.091360
C 3.545934 -0.441451 -1.300446
C 3.057997 -0.273231 1.701886
O -1.056352 0.267967 0.430463
Si -2.483575 -0.590031 -0.073196
C -2.043059 -2.096138 -1.052890
C -3.202856 -1.004841 1.585401
C -3.569195 0.543545 -1.056499
C 0.994286 2.989007 -0.897872
H -1.038510 2.162776 1.838111
H -0.303199 3.776228 1.470348
H 1.405935 -2.875987 -0.862570
H 2.750446 -3.153396 0.278823
H 1.116956 -2.767267 0.886841
H 3.862213 0.609840 -1.343126
H 4.438626 -1.063950 -1.115763
H 3.137009 -0.710280 -2.285046
H 2.350898 -0.436546 2.528353
H 3.948733 -0.899738 1.882828
H 3.368074 0.780379 1.727395
H -1.406081 -2.788925 -0.481696
H -2.963564 -2.635873 -1.336390
H -1.504545 -1.833571 -1.977799
H -3.436114 -0.105211 2.174932
H -4.139776 -1.570909 1.439377
H -2.518613 -1.628004 2.182403
H -3.076951 0.854885 -1.991888
H -4.505017 0.022100 -1.322997
H -3.835262 1.453929 -0.498898
H 1.973785 2.499081 -1.025461
H 0.537376 3.045772 -1.898648
H 1.184319 4.019292 -0.567051