33

C 0.287811 2.522768 0.030531
Si 0.152757 0.737693 -0.484773
H 0.388836 0.644253 -1.932679
C 1.293357 -0.412095 0.461468
C 2.792550 -0.507204 0.102588
C 3.469961 0.877563 0.140699
C 3.481627 -1.419524 1.147682
C 2.986314 -1.134172 -1.293890
C -1.605184 0.148030 -0.173435
C -2.403492 -0.324653 -1.226501
C -3.714758 -0.756416 -0.990688
C -4.242128 -0.719890 0.302769
C -3.455921 -0.251498 1.360466
C -2.146324 0.179419 1.122902
H 1.286054 2.931950 -0.194210
H -0.448856 3.144336 -0.505071
H 0.114611 2.669316 1.106663
H 1.191515 -0.136595 1.537582
H 0.838580 -1.429710 0.381645
H 3.283582 1.389337 1.090113
H 4.554642 0.793453 0.020802
H 3.109265 1.529784 -0.662643
H 3.034228 -2.417502 1.163833
H 4.546883 -1.541994 0.931434
H 3.398567 -1.005448 2.156653
H 2.578802 -0.498498 -2.086835
H 4.046761 -1.287257 -1.516858
H 2.491265 -2.107196 -1.368753
H -2.015540 -0.363706 -2.247402
H -4.323535 -1.120337 -1.816696
H -5.261928 -1.054538 0.487056
H -3.863829 -0.222259 2.369437
H -1.551386 0.540937 1.965200