17

C 1.398745 0.000002 1.524752
C 1.139134 0.000000 0.031108
O 0.381587 1.178783 -0.325815
C -1.014357 1.224575 -0.070120
C -1.666042 0.000001 0.107858
H -2.718681 0.000001 0.355747
O -1.442757 2.373140 -0.099048
C 2.361092 -0.000001 -0.862053
O 0.381588 -1.178785 -0.325814
C -1.014361 -1.224573 -0.070142
O -1.442757 -2.373141 -0.099038
H 0.468040 0.000003 2.106824
H 1.972788 -0.884182 1.832850
H 1.972788 0.884188 1.832848
H 2.985301 -0.886932 -0.686399
H 2.087907 -0.000003 -1.926160
H 2.985301 0.886930 -0.686401