25

O -2.442362 2.086914 -0.000917
C -2.841528 0.939493 0.000241
N -1.979705 -0.187329 0.000299
C -0.629353 -0.150929 -0.000097
C 0.583008 -0.113194 -0.000311
C 1.996227 -0.069685 -0.000138
C 2.739535 -1.265773 -0.000819
C 4.134645 -1.213022 -0.000693
C 4.795195 0.020145 0.000098
C 4.056982 1.208553 0.000766
C 2.661518 1.171684 0.000652
C -2.714003 -1.495840 0.000667
C -4.205475 -1.099667 0.000666
C -4.266117 0.437077 -0.000419
H 2.226135 -2.226207 -0.001446
H 4.711060 -2.138674 -0.001219
H 5.883984 0.055188 0.000190
H 4.572929 2.169326 0.001378
H 2.086961 2.097337 0.001163
H -2.438391 -2.089765 -0.896120
H -2.438220 -2.089404 0.897639
H -4.723988 -1.517661 -0.882224
H -4.723714 -1.516412 0.884316
H -4.812443 0.830208 0.881748
H -4.811285 0.828997 -0.883854