22

F -3.353178 -0.432854 -1.172075
B -2.748484 0.007351 0.001328
F -3.316848 1.262850 0.184620
F -3.376027 -0.750563 0.984924
C -1.148197 -0.067575 0.002437
C -0.381733 1.077309 -0.000406
C 1.026533 0.956698 -0.000721
C 2.103591 1.903661 -0.000404
C 3.295164 1.188967 0.000662
N 3.010889 -0.184389 0.000627
C 4.001455 -1.264828 0.002241
C 1.615505 -0.355165 -0.000371
C 0.821509 -1.521969 -0.001442
C -0.550918 -1.357063 -0.000426
H -0.820529 2.071323 -0.001907
H 1.996449 2.968351 -0.000570
H 4.307129 1.560155 0.001470
H 3.882550 -1.910608 0.892600
H 3.895004 -1.901927 -0.895921
H 5.031269 -0.865681 0.011468
H 1.283228 -2.504780 -0.003020
H -1.191888 -2.237958 -0.001784