14

N 2.342911 0.000009 -0.098990
C 0.927296 0.000000 0.008987
C 0.220749 1.222406 0.010354
C -1.173119 1.209747 0.000321
C -1.876152 -0.000001 -0.004612
C -1.173119 -1.209747 0.000326
C 0.220751 -1.222406 0.010360
H 2.803275 0.833406 0.257179
H 2.803274 -0.833460 0.257012
H 0.758744 2.167647 0.017475
H -1.719815 2.154148 -0.000319
H -2.963229 -0.000001 -0.010008
H -1.719813 -2.154150 -0.000307
H 0.758744 -2.167647 0.017483