14

C 2.172732 0.260040 1.291987
C 1.629498 0.179152 -0.117134
C 2.414094 -0.720070 -1.048991
O 0.324826 -0.569575 0.015180
C -0.853917 -0.009188 -0.020504
S -2.070632 -1.198075 0.177111
S -1.120677 1.645130 -0.258759
H 3.193527 0.669682 1.299245
H 1.561613 0.903635 1.937640
H 2.221042 -0.726042 1.774642
H 1.424856 1.175328 -0.561368
H 2.478526 -1.751669 -0.676142
H 1.963366 -0.768842 -2.049214
H 3.444966 -0.357983 -1.172009