10

C 0.260205 -0.748171 1.371382
S 0.260205 0.418775 0.000000
C 0.260205 -0.748171 -1.371382
O -1.118496 1.035631 0.000000
H 1.206256 -1.304804 1.397330
H 0.174187 -0.214875 2.326616
H -0.549328 -1.484025 1.341376
H -0.549328 -1.484025 -1.341376
H 0.174187 -0.214875 -2.326616
H 1.206256 -1.304804 -1.397330