36

C 1.273524 -2.436344 0.703899
N 2.017822 -1.203841 1.060436
C 1.187210 0.000532 1.476220
N 2.017882 1.204584 1.059615
C 1.273666 2.436903 0.702263
C 2.963546 0.717050 0.091712
C 3.865749 1.427008 -0.686608
C 4.781234 0.696191 -1.467355
C 4.781195 -0.697306 -1.466884
C 3.865670 -1.427545 -0.685642
C 2.963509 -0.717012 0.092199
C -0.231953 0.000357 0.927182
C -1.312130 0.000750 1.818098
C -2.625144 0.000575 1.337294
C -2.858037 -0.000002 -0.043617
C -1.778617 -0.000407 -0.942438
C -0.471735 -0.000229 -0.455625
C -4.252535 -0.000212 -0.597362
F -4.541100 1.055589 -1.382785
F -4.541143 -1.056683 -1.381870
F -5.260119 0.000194 0.292494
H 0.753180 -2.398368 -0.266598
H 1.984570 -3.281091 0.673004
H 0.527783 -2.659171 1.486064
H 1.178941 0.000917 2.602074
H 0.527936 2.660297 1.484279
H 1.984767 3.281583 0.670816
H 0.753323 2.398329 -0.268212
H 3.872439 2.514462 -0.699788
H 5.499289 1.237905 -2.083321
H 5.499220 -1.239477 -2.082484
H 3.872302 -2.515008 -0.698085
H -1.138608 0.001196 2.897548
H -3.451088 0.000892 2.053066
H -1.950104 -0.000868 -2.022251
H 0.366461 -0.000559 -1.157028