19

O -2.394380 1.088980 0.185867
C -1.766660 0.019111 0.058142
C -0.354737 -0.086068 -0.038487
C 0.261120 -1.458913 -0.063590
C 1.764121 -1.438906 -0.371401
C 2.434552 -0.347939 0.448092
O 1.866013 0.943920 0.113490
C 0.470198 1.054292 -0.090633
O 0.204554 2.241420 -0.318639
C -2.600121 -1.243985 0.032510
H 0.091647 -1.960058 0.911968
H -0.248288 -2.088392 -0.823127
H 2.219151 -2.423961 -0.154911
H 1.932070 -1.261166 -1.451336
H 2.303882 -0.488199 1.534810
H 3.503562 -0.210050 0.209178
H -2.420214 -1.831390 -0.876595
H -2.369748 -1.895876 0.884483
H -3.672398 -1.021026 0.071983