49

C -4.099700 -0.319053 0.206297
C -3.420140 0.980784 0.594486
O -2.014656 0.736003 0.839567
C -1.571853 0.410568 2.157973
O -2.371612 0.530602 3.082343
C -0.244381 0.042683 2.027113
C 0.663002 -0.265275 3.153474
P 0.287704 -0.016178 0.341385
C -0.726410 -1.152816 -0.697574
C -1.171099 -2.339308 -0.107803
C -1.928702 -3.237255 -0.867777
C -2.240713 -2.939696 -2.199004
C -1.798897 -1.743983 -2.773152
C -1.037799 -0.840505 -2.020118
C 0.436270 1.618035 -0.502503
C -0.204034 2.741576 0.016296
C -0.059789 3.975584 -0.633663
C 0.719516 4.072280 -1.788276
C 1.361774 2.937210 -2.299559
C 1.224093 1.704595 -1.655323
C 2.012616 -0.687943 0.284670
C 3.036508 0.105712 0.808973
C 4.350297 -0.374756 0.796982
C 4.629566 -1.638859 0.265342
C 3.597002 -2.423994 -0.255016
C 2.278904 -1.948837 -0.246088
H -5.120727 -0.146663 -0.151885
H -3.544091 -0.832655 -0.591507
H -4.154659 -1.017001 1.050167
H -3.389490 1.709822 -0.235395
H -3.864742 1.440466 1.494443
H 1.171386 -1.234721 3.042484
H 1.439131 0.502117 3.293358
H 0.102617 -0.317903 4.099865
H -0.950876 -2.583453 0.936242
H -2.278885 -4.167597 -0.420507
H -2.831999 -3.641514 -2.789047
H -2.048036 -1.511477 -3.808544
H -0.715106 0.091948 -2.490492
H -0.827826 2.685006 0.915676
H -0.557789 4.859058 -0.234246
H 0.830618 5.033052 -2.293442
H 1.971277 3.016213 -3.199590
H 1.745768 0.836784 -2.069299
H 2.843186 1.097055 1.229354
H 5.156814 0.236197 1.202642
H 5.655166 -2.011310 0.257477
H 3.815083 -3.408910 -0.668189
H 1.491566 -2.585162 -0.660124