24

C 1.752643 -1.062003 1.142456
C 2.279641 -0.032119 0.188386
C 3.517786 0.690362 0.631106
N 1.778460 0.285510 -0.964791
C 0.571696 -0.369284 -1.505824
C -0.685748 -0.113535 -0.707120
C -1.045293 1.194742 -0.349760
C -2.221616 1.427279 0.367088
C -3.048500 0.358286 0.728224
C -2.693475 -0.946047 0.371009
C -1.515509 -1.184130 -0.343054
H 2.364704 -1.170576 2.046691
H 0.731696 -0.815441 1.474133
H 1.697358 -2.054818 0.671463
H 4.350362 -0.010639 0.788987
H 3.861405 1.440629 -0.096307
H 3.349660 1.216822 1.582041
H 0.433475 0.046295 -2.535892
H 0.739942 -1.463239 -1.644880
H -0.403163 2.029345 -0.631030
H -2.495987 2.445063 0.643910
H -3.966086 0.541580 1.284996
H -3.335950 -1.780961 0.649964
H -1.246385 -2.203934 -0.615607