34

Cl 3.222000 -4.891493 -0.958426
C 2.331667 -3.554385 -0.313633
C 1.558909 -3.746882 0.831961
C 0.847888 -2.657429 1.351323
C 2.416291 -2.319747 -0.958769
C 1.697641 -1.239107 -0.433378
C 0.921805 -1.415579 0.714546
P -0.026046 -0.003018 1.502115
C 0.746272 1.519111 0.728257
C 1.972863 1.931612 1.258130
C 2.602323 3.072119 0.745080
C 1.975643 3.773612 -0.285964
Cl 2.756146 5.175347 -0.935858
C 0.747127 3.380128 -0.817107
C 0.129467 2.234362 -0.299979
C -1.725941 -0.106162 0.723478
C -2.666754 0.847289 1.126767
C -3.968685 0.797966 0.615210
C -4.293995 -0.218216 -0.284755
Cl -5.897145 -0.278984 -0.935268
C -3.370414 -1.183492 -0.685935
C -2.068698 -1.120517 -0.172440
H 1.509622 -4.721865 1.317699
H 0.247779 -2.814592 2.252996
H 3.026243 -2.195486 -1.853909
H 1.764665 -0.273429 -0.943683
H 2.468856 1.388579 2.068630
H 3.560817 3.402984 1.146254
H 0.275788 3.947575 -1.620155
H -0.831151 1.927220 -0.724551
H -2.420032 1.644221 1.835119
H -4.710595 1.538399 0.916211
H -3.651064 -1.971366 -1.385662
H -1.347729 -1.877870 -0.495039