43

C 5.105657 0.378484 -0.489453
C 3.770061 0.569920 0.089568
S 2.375075 -0.264907 -0.629961
C 3.357398 1.305103 1.150887
C 1.923687 1.237659 1.400312
C 1.251383 0.450061 0.538213
B -0.244082 0.036456 0.221545
C -1.110884 1.360755 -0.034414
C -1.721916 2.013814 1.041883
C -2.435300 3.198094 0.835708
C -2.538331 3.741593 -0.450045
C -1.925791 3.091643 -1.526759
C -1.213978 1.905986 -1.318295
O -0.196482 -0.851346 -0.982045
C -0.846564 -2.087012 -0.704849
C -1.891649 -2.317109 -1.805933
C 0.224502 -3.185833 -0.794808
C -1.465295 -1.925369 0.747362
C -2.966237 -1.598384 0.740591
C -1.201765 -3.116840 1.675804
O -0.779879 -0.815016 1.320636
H 5.425299 -0.675528 -0.462987
H 5.151069 0.694109 -1.544326
H 5.877048 0.955844 0.045086
H 3.999190 1.906589 1.778438
H 1.479227 1.794060 2.211471
H -1.641093 1.592945 2.040825
H -2.910522 3.701459 1.675279
H -3.090236 4.663405 -0.610264
H -2.003655 3.511182 -2.527759
H -0.743231 1.398897 -2.156198
H -1.411718 -2.407184 -2.785852
H -2.461095 -3.234462 -1.629193
H -2.601987 -1.488448 -1.877455
H 0.988264 -3.060843 -0.022149
H -0.205152 -4.185697 -0.695347
H 0.742233 -3.136123 -1.758301
H -3.565577 -2.423240 0.347697
H -3.318704 -1.382881 1.753886
H -3.166680 -0.704404 0.140107
H -0.130045 -3.278346 1.830221
H -1.643616 -2.950166 2.663868
H -1.628787 -4.039446 1.271237