10

N -2.144323 -0.090770 -0.000001
C -0.954503 0.775062 -0.000026
C 0.404871 0.048861 -0.000001
F 0.632815 -0.756648 -1.053718
F 1.474444 0.865138 -0.000025
F 0.632811 -0.756582 1.053767
H -2.174447 -0.692052 0.822245
H -2.174440 -0.692109 -0.822205
H -1.001841 1.454396 -0.891925
H -1.001843 1.454451 0.891832