23

C -3.638014 -0.490612 0.055493
C -2.284330 0.136730 -0.069443
O -2.118422 1.322974 -0.335492
N -1.210450 -0.736350 0.141432
C 0.189231 -0.394268 0.078600
C 1.090871 -1.390891 -0.010760
C 2.567123 -1.140499 -0.052095
C 2.915652 0.319065 -0.380624
C 2.035001 1.283752 0.421526
C 0.546985 1.064421 0.115540
H -4.434626 0.255814 -0.093015
H -3.807300 -1.284796 -0.689198
H -3.809342 -0.942348 1.045571
H -1.416554 -1.728606 0.316638
H 0.803435 -2.439623 -0.041078
H 3.005891 -1.422216 0.929281
H 3.041695 -1.814167 -0.794930
H 3.984150 0.510476 -0.169238
H 2.783353 0.502247 -1.464281
H 2.219279 1.147517 1.505039
H 2.310520 2.331618 0.196981
H 0.279271 1.526450 -0.860142
H -0.074365 1.602096 0.862863