31

C 3.591524 -0.032302 -0.217836
C 2.804688 1.283337 -0.190847
C 1.344895 1.066507 -0.617484
N 0.695201 0.033890 0.263268
C 1.420453 -1.278040 0.187979
C 2.881363 -1.093292 0.630662
C -0.738853 -0.046639 0.054840
C -1.384754 -1.133071 -0.407047
C -2.877975 -1.226971 -0.500688
C -3.605707 -0.121266 0.278175
C -2.921787 1.233821 0.064760
C -1.462563 1.190559 0.535651
H 3.700827 -0.388382 -1.260133
H 4.619589 0.130238 0.156615
H 2.840820 1.721692 0.825038
H 3.275123 2.027781 -0.861224
H 0.777768 2.020086 -0.518769
H 1.301847 0.776733 -1.689856
H 0.912673 -1.993802 0.871071
H 1.389854 -1.720927 -0.831556
H 3.410315 -2.062563 0.559091
H 2.917514 -0.805626 1.699228
H -0.862896 -2.017042 -0.763505
H -3.169036 -1.185091 -1.572233
H -3.215890 -2.220028 -0.140695
H -4.664697 -0.069878 -0.035468
H -3.620625 -0.367898 1.356988
H -2.963934 1.511786 -1.005963
H -3.466830 2.028815 0.607735
H -1.421759 1.210292 1.645700
H -0.934776 2.110729 0.206070