25

C 1.890983 -0.294825 1.462626
C 2.155542 -0.005582 0.021423
C 3.604336 0.086669 -0.347995
C 1.207462 0.177407 -0.916435
N -0.243106 0.131139 -0.787079
C -0.753619 1.245972 0.082015
C -2.287527 1.193446 0.094716
O -2.753828 -0.095068 0.555984
C -2.256436 -1.186656 -0.251079
C -0.722730 -1.194566 -0.269266
H 1.858543 0.635085 2.049817
H 0.932103 -0.817168 1.624375
H 2.672606 -0.924219 1.910333
H 4.104227 -0.886579 -0.235077
H 3.769016 0.412359 -1.383578
H 4.137728 0.796688 0.300336
H 1.474586 0.397341 -1.956441
H -0.362654 1.205811 1.120519
H -0.408733 2.209428 -0.351988
H -2.722213 1.885177 0.837828
H -2.717706 1.388284 -0.903101
H -2.672813 -2.072365 0.260346
H -2.681834 -1.099106 -1.265769
H -0.351355 -1.989992 -0.950278
H -0.327200 -1.429361 0.748318