19

C 3.574182 0.375761 -0.275130
C 2.351834 -0.100331 -0.502011
C 1.435908 -0.583476 0.585909
C -0.004142 -0.258661 0.293512
C -0.924957 -1.281754 0.023942
C -2.262550 -0.969960 -0.237282
C -2.689368 0.361145 -0.233092
C -1.772341 1.383765 0.033370
C -0.435395 1.077899 0.296206
H 4.012585 0.474895 0.707181
H 4.235834 0.704875 -1.063674
H 1.943809 -0.181418 -1.512246
H 1.580585 -1.681077 0.710040
H 1.720686 -0.153511 1.572048
H -0.601313 -2.321543 0.016978
H -2.974014 -1.769015 -0.444873
H -3.731410 0.601648 -0.436240
H -2.102053 2.422548 0.036391
H 0.276269 1.876277 0.501847