22

O 3.300952 -1.343350 0.820241
S 2.630392 -0.991451 -0.464164
C 1.809975 0.578135 -0.161754
C 0.421932 0.548976 -0.029397
C -0.293984 1.729199 0.122961
C 0.400749 2.950010 0.148005
C 1.791126 2.974426 0.022022
C 2.508733 1.776571 -0.135990
S -0.358675 -1.074426 -0.132801
O -0.431663 -1.585125 1.283896
O -2.154862 -0.251130 0.058598
C -3.101038 -0.981938 -0.367379
O -4.333442 -0.492305 -0.346593
C -4.719806 0.826127 0.120645
O 1.222921 -1.835171 -0.531575
H -1.385632 1.715439 0.218563
H -0.152818 3.882752 0.265794
H 2.325780 3.925307 0.043170
H 3.594876 1.803755 -0.238393
H -5.522423 1.144188 -0.546682
H -5.075076 0.720979 1.146605
H -3.869544 1.509232 0.071169