27

C 1.286890 -0.345082 -0.441896
C 0.317557 -0.611223 0.732194
C -1.102175 -0.271562 0.374256
C -2.028453 -1.293634 0.112410
C -3.350980 -0.978337 -0.211308
C -3.760795 0.356691 -0.277996
C -2.840082 1.378297 -0.021850
C -1.517686 1.067831 0.302581
N 1.727380 1.093996 -0.421527
C 3.079312 1.125661 0.225737
C 3.720555 -0.265479 0.041063
C 2.569993 -1.214446 -0.335393
H 0.757198 -0.559466 -1.401744
H 0.395633 -1.673320 1.043361
H 0.637749 -0.029017 1.621586
H -1.718593 -2.336542 0.160576
H -4.064604 -1.777088 -0.412257
H -4.791583 0.600177 -0.528648
H -3.155502 2.420019 -0.075452
H -0.798610 1.864139 0.492252
H 1.805284 1.435319 -1.388021
H 3.704016 1.935620 -0.193127
H 2.937530 1.351209 1.303272
H 4.492688 -0.246649 -0.746587
H 4.231409 -0.594192 0.961210
H 2.458581 -2.019618 0.409683
H 2.772327 -1.720860 -1.294203