52

P -0.164999 0.038869 -0.939835
C 0.691229 -1.611775 -0.410666
C 1.983795 -1.813513 -1.212309
C 2.614585 -3.176682 -0.878604
C 2.872863 -3.319623 0.627616
C 1.592071 -3.075069 1.437225
C 0.964250 -1.711670 1.096183
C -1.849115 -0.079360 0.007480
C -2.763901 1.083313 -0.401316
C -4.110888 0.998074 0.337102
C -4.801703 -0.349187 0.087080
C -3.877162 -1.519041 0.449438
C -2.532079 -1.421929 -0.292337
C 0.786012 1.409021 0.037368
C 2.255842 1.449909 -0.404513
C 3.023183 2.516005 0.396499
C 2.377646 3.900186 0.241424
C 0.887012 3.863525 0.606582
C 0.140528 2.782487 -0.194315
H -0.026414 -2.426193 -0.691334
H 1.800958 -1.758922 -2.302803
H 2.721631 -1.010967 -0.979333
H 1.950192 -3.991422 -1.223847
H 3.561087 -3.298693 -1.437263
H 3.273014 -4.326730 0.848403
H 3.656776 -2.604650 0.942073
H 0.863102 -3.883295 1.237905
H 1.813631 -3.125565 2.519373
H 1.650530 -0.909183 1.432951
H 0.033650 -1.588920 1.683797
H -1.648237 -0.012387 1.102760
H -2.291553 2.066341 -0.167443
H -2.952513 1.083134 -1.492910
H -3.952685 1.142049 1.422797
H -4.768509 1.825807 0.012706
H -5.736884 -0.409801 0.674134
H -5.103044 -0.424686 -0.975130
H -3.701879 -1.533841 1.541888
H -4.369517 -2.479051 0.207001
H -2.714426 -1.544188 -1.378993
H -1.897289 -2.278485 0.012962
H 0.739042 1.167671 1.125758
H 2.753801 0.463094 -0.267159
H 2.341066 1.684720 -1.484677
H 3.052425 2.233269 1.465759
H 4.076421 2.551123 0.061711
H 2.904188 4.636424 0.876604
H 2.498484 4.253862 -0.800342
H 0.771231 3.673638 1.690535
H 0.428499 4.852281 0.420029
H 0.155783 3.056911 -1.267999
H -0.932576 2.785610 0.107994