19

N 3.088489 1.082203 0.045236
N 2.443074 0.150918 -0.066820
N 1.939101 -0.983661 -0.135300
C 0.508150 -1.192379 -0.455571
C -0.451924 -0.573543 0.588745
H -0.144773 -0.905094 1.610105
N -0.372964 0.923295 0.488107
C -1.515075 1.356718 -0.382626
C -2.594744 0.255658 -0.326878
C -1.916950 -0.979767 0.292014
H 0.262732 -0.827213 -1.478891
H 0.396832 -2.304608 -0.469885
H -0.482013 1.332172 1.426065
H -1.904745 2.342523 -0.067550
H -1.130066 1.477480 -1.416887
H -3.460999 0.576242 0.276715
H -2.990218 0.036784 -1.333277
H -1.980532 -1.851311 -0.381271
H -2.426851 -1.286381 1.222209