15

C -2.217601 -0.046001 0.000142
C -0.736150 -0.093094 -0.000351
N -0.033262 -1.190543 -0.000237
C 1.417915 -0.860241 0.000040
C 1.534341 0.689254 0.000309
C 0.076300 1.194147 -0.000289
H -2.677333 -1.046272 -0.013815
H -2.602061 0.472186 0.892996
H -2.602744 0.497667 -0.876984
H 1.896949 -1.313067 0.890450
H 1.897236 -1.312778 -0.890363
H 2.086411 1.048915 0.883195
H 2.087239 1.049178 -0.881947
H -0.150488 1.816638 -0.882900
H -0.151196 1.816944 0.881922