13

C 0.044471 1.021348 0.769373
C 0.044471 1.021348 -0.769373
C 0.044471 -0.453553 -1.186579
O -0.216832 -1.250178 0.000000
C 0.044471 -0.453553 1.186579
H 0.923865 1.553575 1.172323
H -0.839509 1.552026 1.165048
H -0.839509 1.552026 -1.165048
H 0.923865 1.553575 -1.172323
H -0.766436 -0.723975 -1.880807
H 1.015763 -0.787679 -1.585984
H 1.015763 -0.787679 1.585984
H -0.766436 -0.723975 1.880807