34

C -2.869543 -0.499970 1.167643
C -2.145628 -0.486273 0.044209
C -1.290438 -1.661470 -0.363421
C -0.005146 -1.738364 0.481050
C 1.225955 -2.144348 -0.344458
C 2.478358 -1.312962 -0.021884
C 2.329707 0.170243 -0.399314
C 1.890473 1.045584 0.785029
C 1.151417 2.322646 0.354756
C -0.368856 2.127152 0.238922
C -0.779631 1.363685 -1.027633
C -2.155808 0.695050 -0.894374
H -2.891812 -1.334655 1.849181
H -3.487448 0.320650 1.492520
H -1.865203 -2.603368 -0.262914
H -1.036769 -1.597681 -1.441337
H 0.178146 -0.751120 0.966423
H -0.150566 -2.444711 1.318040
H 1.447140 -3.216222 -0.178429
H 1.005989 -2.058761 -1.427560
H 2.734548 -1.415673 1.049567
H 3.340044 -1.743499 -0.569331
H 3.281183 0.551165 -0.812166
H 1.584103 0.266139 -1.222596
H 1.226556 0.449399 1.452946
H 2.771230 1.310551 1.398113
H 1.350419 3.120944 1.097200
H 1.560799 2.703452 -0.599670
H -0.742192 1.592962 1.135961
H -0.869573 3.114067 0.255963
H -0.788302 2.051694 -1.893828
H -0.009321 0.592790 -1.266398
H -2.500268 0.359401 -1.895245
H -2.903852 1.446643 -0.569595