10

C -1.838006 0.105061 -0.000035
C -0.607656 -0.412441 -0.000008
C 0.607656 0.412441 0.000018
C 1.838006 -0.105061 0.000031
H -2.733143 -0.501074 -0.000086
H -2.046315 1.165909 -0.000046
H -0.448959 -1.494992 -0.000029
H 0.448959 1.494992 0.000037
H 2.046315 -1.165909 0.000025
H 2.733143 0.501074 0.000064