46

C 1.360547 -3.099870 0.332734
Si 1.774461 -1.255825 0.266537
C 2.895137 -0.889933 1.746455
C 2.767736 -0.938830 -1.310260
Si -0.021819 0.002283 0.281682
O -0.659901 0.008352 1.865306
C -1.417886 -0.004643 2.963351
C -2.751814 -0.001128 2.898413
Si 0.489246 2.062005 -0.270926
C 0.777579 2.187924 -2.135477
C -0.905023 3.252770 0.192982
C 2.052511 2.678888 0.597534
Si -1.511000 -0.804770 -1.112960
C -2.323596 -2.352740 -0.388501
C -2.901905 0.427709 -1.474191
C -0.717442 -1.273551 -2.764405
H 0.712486 -3.333851 1.189564
H 0.840710 -3.429879 -0.578236
H 2.270014 -3.705941 0.429838
H 3.813094 -1.489351 1.702218
H 3.192954 0.167943 1.773964
H 2.391190 -1.121132 2.694813
H 2.151260 -1.045768 -2.214861
H 3.204425 0.070461 -1.319628
H 3.596513 -1.654611 -1.391443
H -0.796141 -0.016646 3.860541
H -3.303372 0.010431 1.971422
H -3.378078 -0.010803 3.773780
H -0.144292 2.005504 -2.706102
H 1.134602 3.191790 -2.401048
H 1.533253 1.467577 -2.481840
H -1.083524 3.246232 1.277799
H -0.660594 4.282209 -0.096833
H -1.849229 2.983627 -0.301286
H 2.942553 2.119501 0.276085
H 2.230486 3.738613 0.374227
H 1.970106 2.579756 1.688982
H -2.817372 -2.124285 0.567497
H -3.082572 -2.762119 -1.065494
H -1.585075 -3.144791 -0.199334
H -2.532761 1.300976 -2.030184
H -3.693420 -0.036183 -2.075682
H -3.363234 0.793037 -0.545679
H -0.026361 -2.121918 -2.656857
H -1.483395 -1.564023 -3.494829
H -0.152506 -0.434459 -3.196326