28

C 0.718281 2.280908 -0.418393
C 0.467609 0.990863 -0.181968
Si 1.799743 -0.322691 0.059197
C 3.490264 0.453808 -0.082848
C 1.574317 -1.064640 1.755815
C 1.575556 -1.619334 -1.262937
C -0.926581 0.494120 -0.090912
C -1.593776 0.476967 1.146556
C -2.906162 0.005976 1.228780
C -3.565353 -0.449544 0.082339
C -2.905411 -0.432826 -1.150762
C -1.592968 0.036504 -1.241230
H -0.058509 3.024257 -0.554505
H 1.711955 2.704329 -0.496001
H 3.641800 1.234837 0.677734
H 4.278815 -0.302433 0.055851
H 3.641684 0.914013 -1.071194
H 0.574394 -1.513325 1.863807
H 2.317688 -1.853871 1.945701
H 1.685202 -0.304530 2.544180
H 1.686614 -1.188032 -2.269556
H 2.319542 -2.423965 -1.159817
H 0.576078 -2.078158 -1.204933
H -1.082674 0.828894 2.041423
H -3.417821 -0.005959 2.190541
H -4.587733 -0.815139 0.149331
H -3.416782 -0.786389 -2.045416
H -1.081331 0.046349 -2.202546