16

O 3.201719 -0.308040 -0.000645
C 1.940925 -0.135259 0.000507
C 1.376893 1.186367 0.000071
C 0.007743 1.374592 0.000093
C -0.842270 0.252789 0.000147
O -2.198281 0.605265 -0.000006
C -3.159385 -0.472405 0.000090
C -0.338998 -1.050353 0.000012
C 1.036823 -1.244405 0.000023
H 2.051970 2.031577 -0.000190
H -0.424695 2.372951 -0.000062
H -3.055535 -1.080769 -0.903017
H -3.055574 -1.080583 0.903327
H -4.116186 0.063904 0.000014
H -1.006637 -1.908662 -0.000210
H 1.448764 -2.244167 -0.000301