19

Cl -3.535785 -0.542858 -0.000298
C -1.872220 -0.043269 -0.000128
C -1.604907 1.345072 0.000052
C -0.294359 1.794477 0.000188
C 0.728086 0.827966 0.000143
C 0.445720 -0.587228 -0.000045
C 1.706861 -1.270926 -0.000052
C 2.710161 -0.308772 0.000129
C 4.175809 -0.470899 0.000253
N 2.126541 0.976096 0.000235
C -0.891983 -1.019835 -0.000182
H -2.432211 2.055624 0.000083
H -0.057690 2.857602 0.000329
H 1.836906 -2.333588 -0.000180
H 4.647122 -0.010193 -0.884007
H 4.646608 -0.012642 0.886066
H 4.470835 -1.532732 -0.001129
H 2.622331 1.854201 0.000426
H -1.130340 -2.081870 -0.000323