26

C 3.277314 -1.633372 -0.261405
Si 2.685092 -0.004094 0.419206
H 2.889645 -0.000268 1.872050
C 3.651063 1.418791 -0.305099
C 0.739967 0.351126 0.014750
Ge -1.634965 -0.009760 -0.010437
C -2.143277 -0.441017 1.784897
C -2.222050 1.713196 -0.607653
C -1.911191 -1.421250 -1.274986
H 4.342692 -1.806862 -0.047419
H 2.707662 -2.464894 0.185729
H 3.146603 -1.697984 -1.351599
H 3.528536 1.494994 -1.395237
H 3.332876 2.380512 0.127329
H 4.728393 1.306595 -0.105163
H 0.628703 1.333289 0.484428
H 0.773586 0.427320 -1.074756
H -1.874967 0.355868 2.487287
H -3.223834 -0.600382 1.872046
H -1.651563 -1.354593 2.137784
H -1.766475 1.991884 -1.564181
H -3.308731 1.741203 -0.747390
H -1.968478 2.502603 0.108532
H -1.391858 -2.339595 -0.978370
H -2.973586 -1.669494 -1.377282
H -1.542578 -1.155395 -2.271701