49

O -1.869421 -0.785700 -1.478023
C -2.043757 -0.150695 -0.415770
C -1.064917 0.340753 0.431580
P 0.643376 0.077662 0.114804
C 1.077109 -1.709424 0.026011
C 2.149778 -2.135713 -0.759298
C 2.467823 -3.497832 -0.795427
C 1.714231 -4.414245 -0.053068
C 0.639529 -3.974373 0.725840
C 0.314075 -2.612873 0.766674
C 1.232771 0.840975 -1.453940
C 0.554639 0.528457 -2.633107
C 0.985796 1.093393 -3.839025
C 2.082717 1.960372 -3.854395
C 2.753360 2.266502 -2.665037
C 2.328926 1.705078 -1.455368
C 1.634248 0.811880 1.481081
C 1.270846 2.072881 1.960455
C 2.013726 2.649580 2.996562
C 3.104816 1.964794 3.542802
C 3.457233 0.702385 3.055446
C 2.719762 0.118894 2.018013
C -3.480344 0.109528 -0.007210
C -4.045120 1.374421 -0.207339
C -5.373798 1.608747 0.159935
C -6.135186 0.582916 0.729771
C -5.567847 -0.679697 0.931027
C -4.240563 -0.918803 0.561433
H -1.333593 0.891599 1.321899
H 2.748050 -1.438431 -1.352777
H 3.301882 -3.845331 -1.405140
H 1.965078 -5.475942 -0.084474
H 0.051415 -4.690958 1.299223
H -0.537498 -2.288025 1.372954
H -0.316809 -0.147478 -2.635934
H 0.463935 0.856587 -4.766163
H 2.416890 2.399577 -4.795641
H 3.607309 2.943257 -2.679712
H 2.869914 1.960858 -0.539946
H 0.420134 2.626966 1.551343
H 1.740444 3.633608 3.378713
H 3.681565 2.417002 4.351662
H 4.306840 0.169739 3.483537
H 3.014899 -0.870732 1.655998
H -3.449799 2.173762 -0.647066
H -5.815406 2.591996 0.002826
H -7.169687 0.766998 1.016160
H -6.160568 -1.478789 1.374431
H -3.799398 -1.902993 0.714347