18

C -1.496402 -1.253675 -0.000037
C -0.674071 0.000000 -0.000001
C -1.496403 1.253675 0.000032
C 0.674071 0.000000 0.000001
C 1.496402 -1.253675 0.000037
C 1.496403 1.253675 -0.000032
H -2.146233 -1.301658 -0.883958
H -0.883103 -2.167258 0.000358
H -2.146877 -1.301327 0.883424
H -2.146237 1.301657 0.883950
H -0.883104 2.167258 -0.000360
H -2.146874 1.301327 -0.883431
H 2.146877 -1.301327 -0.883425
H 2.146233 -1.301658 0.883957
H 0.883103 -2.167258 -0.000359
H 2.146874 1.301327 0.883432
H 2.146238 1.301658 -0.883950
H 0.883103 2.167258 0.000361