12

F -1.767002 -0.652835 -1.093912
B -1.248787 0.017215 -0.000033
F -1.900580 1.236023 0.000382
F -1.766981 -0.653571 1.093406
C 0.344926 0.142296 -0.000019
C 1.227433 1.187936 0.000131
C 2.559522 0.620228 -0.000333
C 2.411347 -0.738421 0.000197
O 1.045104 -1.069813 0.000193
H 1.013751 2.237111 0.000109
H 3.470070 1.186766 -0.000575
H 3.050985 -1.590233 0.000341