31

C 0.719321 -0.339177 3.658713
N -0.014113 0.205506 2.479562
C -1.433962 -0.273916 2.459364
C -2.155442 0.315768 1.240267
N -1.480816 -0.182571 0.000000
C -2.155442 0.315768 -1.240267
C -1.433962 -0.273916 -2.459364
N -0.014113 0.205506 -2.479562
C 0.719321 -0.339177 -3.658713
C 0.661668 0.081314 -1.225702
C 2.075738 0.145960 -1.162432
N 2.764732 0.180352 0.000000
C 2.075738 0.145960 1.162432
C 0.661668 0.081314 1.225702
C -0.061579 0.035347 0.000000
H 0.946148 -1.415324 3.590092
H 1.668444 0.207967 3.794753
H 0.122209 -0.175340 4.572185
H -1.503944 -1.384899 2.454345
H -1.928686 0.075214 3.394408
H -3.214111 -0.029637 1.224177
H -2.181164 1.426829 1.297791
H -3.214111 -0.029637 -1.224177
H -2.181164 1.426829 -1.297791
H -1.503944 -1.384899 -2.454345
H -1.928686 0.075214 -3.394408
H 0.122209 -0.175340 -4.572185
H 1.668444 0.207967 -3.794753
H 0.946148 -1.415324 -3.590092
H 2.676989 0.178676 -2.078178
H 2.676989 0.178676 2.078178