18

C -2.551054 -1.264978 0.000022
N -1.552850 -0.192548 0.000013
C -1.799097 1.191823 0.000027
N -0.651270 1.910211 -0.000028
C 0.393833 0.967878 -0.000010
C 1.794387 1.147477 -0.000024
C 2.590126 0.018783 -0.000018
C 2.034207 -1.292120 -0.000002
C 0.669217 -1.504082 0.000009
C -0.157346 -0.362523 0.000007
H -2.443105 -1.907161 -0.895429
H -2.443161 -1.907090 0.895531
H -3.578309 -0.856506 -0.000027
H -2.800191 1.611116 0.000019
H 2.216206 2.150659 -0.000043
H 3.676619 0.118239 -0.000030
H 2.716851 -2.143508 -0.000001
H 0.238293 -2.502942 0.000021