32

C -1.625996 -2.101707 -1.100551
N -1.589537 -1.111654 0.008631
C -2.784290 -1.191402 0.917792
C -3.359411 0.236228 1.006603
N -2.545912 1.067041 0.056200
C -2.251741 2.438587 0.544293
C -1.421748 0.278631 -0.400518
N -0.454221 0.845675 -1.062539
C 0.682475 0.102383 -1.631999
C 1.824458 0.019557 -0.643038
C 2.867790 0.955137 -0.695022
C 3.929954 0.871196 0.209930
C 3.955951 -0.144218 1.170923
C 2.913726 -1.075689 1.226908
C 1.850306 -0.996027 0.324152
H -2.473708 -1.977917 -1.792717
H -0.686946 -2.033133 -1.689285
H -1.672350 -3.119267 -0.676520
H -3.545954 -1.917008 0.570252
H -2.424812 -1.550974 1.905671
H -4.416544 0.280661 0.668630
H -3.335476 0.620799 2.046318
H -1.627069 2.468418 1.451259
H -1.726348 3.003136 -0.246866
H -3.201367 2.957973 0.755217
H 0.416135 -0.924521 -1.994595
H 0.991989 0.671996 -2.542541
H 2.851080 1.750939 -1.438766
H 4.738848 1.599948 0.165604
H 4.784462 -0.209028 1.874333
H 2.930768 -1.866097 1.976684
H 1.036145 -1.719427 0.374444