14

C -2.386988 0.025376 0.000649
C -0.898598 0.012761 -0.002132
C -0.180609 -1.201547 -0.001301
N 1.176644 -1.256719 0.000203
C 1.866184 -0.085903 0.001049
C 1.228441 1.165470 0.000517
C -0.166106 1.211239 -0.001008
H -2.781838 0.452375 0.935877
H -2.790192 0.634564 -0.822748
H -2.825827 -0.977202 -0.101433
H -0.702511 -2.165881 -0.001803
H 2.959326 -0.165112 0.002097
H 1.815445 2.082898 0.001229
H -0.684855 2.171014 -0.001286