18

O -1.108740 -2.238432 -1.209971
S -0.949338 -1.389412 0.000080
C 0.677811 -0.704492 -0.000057
C 0.677811 0.704492 -0.000060
C 1.863809 1.409312 -0.000146
C 3.082746 0.695022 -0.000227
C 3.082746 -0.695023 -0.000224
C 1.863808 -1.409313 -0.000140
S -0.949337 1.389412 0.000074
O -1.108515 2.238537 1.210081
O -1.108739 2.238427 -1.209980
C -1.766560 0.000000 0.000216
H -2.851388 0.000000 0.000454
O -1.108516 -2.238531 1.210091
H 1.880764 2.501015 -0.000148
H 4.025851 1.244872 -0.000290
H 4.025850 -1.244873 -0.000284
H 1.880763 -2.501015 -0.000138