35

C -4.494442 1.107721 -0.001826
C -3.524939 -0.080292 0.154818
C -3.332469 -0.396511 1.645882
C -4.125286 -1.302426 -0.563616
C -2.157611 0.294972 -0.525391
H -2.351872 0.467426 -1.619022
C -1.536394 1.580342 0.076098
C -0.106350 1.843472 -0.421624
N 0.706348 0.605751 -0.294221
C 0.027521 -0.647032 -0.313423
N -1.233387 -0.865585 -0.429821
S 1.240176 -1.952937 -0.132062
C 2.561069 -0.806578 0.022771
C 3.902125 -1.092706 0.217082
C 4.801734 -0.021879 0.309661
C 4.350808 1.300778 0.206373
C 2.999225 1.599992 0.008890
C 2.096066 0.532403 -0.081925
H -4.175143 1.982341 0.573663
H -4.598673 1.415870 -1.047052
H -5.496197 0.843499 0.356388
H -4.283236 -0.652259 2.124587
H -2.655788 -1.247170 1.788005
H -2.907108 0.452738 2.191481
H -4.269847 -1.116307 -1.632202
H -3.473946 -2.179628 -0.471491
H -5.097914 -1.574243 -0.141530
H -2.168163 2.456684 -0.170336
H -1.542644 1.511932 1.184267
H -0.110293 2.157306 -1.491631
H 0.360338 2.667134 0.163528
H 4.254793 -2.122165 0.297580
H 5.861330 -0.221216 0.463564
H 5.070390 2.119505 0.281074
H 2.664098 2.630857 -0.072219