27

C -1.948104 2.243456 -0.000303
C -2.021742 0.770777 -0.000170
C -1.004841 -0.121962 -0.000220
O 0.293750 0.013248 -0.000372
Si 1.930995 -0.025804 -0.000115
C 2.492307 -0.881054 1.544680
C 2.492571 -0.944830 -1.507803
C 2.520907 1.731514 -0.036204
O -1.393852 -1.476042 -0.000023
C -2.875306 -1.473063 0.000216
C -3.321388 0.004192 0.000105
H -0.908985 2.605081 -0.000676
H -2.442603 2.670462 -0.885734
H -2.441988 2.670583 0.885415
H 2.134369 -1.920751 1.594249
H 3.596723 -0.900708 1.559458
H 2.149774 -0.364377 2.453908
H 2.152695 -0.464634 -2.437789
H 3.596942 -0.967839 -1.519950
H 2.132005 -1.984762 -1.515741
H 2.177839 2.264459 -0.935843
H 2.178707 2.300313 0.841553
H 3.625442 1.737010 -0.036879
H -3.157944 -2.027429 -0.906520
H -3.157651 -2.027203 0.907183
H -3.937304 0.249716 0.884524
H -3.937562 0.249507 -0.884192