23

C -3.182577 -0.142014 0.022446
C -1.814294 -0.299145 -0.625039
C -0.754837 -0.703912 0.399944
O 0.372060 -1.297546 -0.275583
C 1.425422 -0.302560 -0.456778
H 1.437190 -0.081024 -1.544889
C 2.718779 -0.939413 0.009680
C 0.972652 0.910191 0.403817
H 1.672346 1.148724 1.233270
C 0.622995 2.136825 -0.416425
O -0.211634 0.428793 1.099847
H -3.546444 -1.085268 0.448359
H -3.165247 0.598305 0.832431
H -3.929718 0.193574 -0.707553
H -1.848755 -1.063480 -1.428625
H -1.510587 0.645272 -1.125553
H -1.086460 -1.420086 1.173757
H 2.926487 -1.864631 -0.545664
H 3.574640 -0.268601 -0.139049
H 2.687507 -1.212194 1.072462
H -0.175492 1.929930 -1.144682
H 0.260731 2.952069 0.224257
H 1.491563 2.517593 -0.968497