20

H -2.406187 -1.065198 0.220835
N -1.538730 -0.687893 -0.191917
C -1.500974 0.779462 0.106142
C -0.238501 1.467455 -0.436006
C 1.001359 1.193128 0.424109
C 1.765655 -0.082210 0.038671
C 0.885408 -1.239520 -0.450246
C -0.386518 -1.453072 0.385096
H -2.398225 1.222796 -0.383467
H -1.601198 0.992173 1.193869
H -0.055893 1.155350 -1.482028
H -0.424012 2.559133 -0.476653
H 1.692058 2.056887 0.358713
H 0.706009 1.136514 1.490781
H 2.504483 0.155627 -0.752376
H 2.363341 -0.414189 0.910669
H 0.605407 -1.069764 -1.509293
H 1.482210 -2.172640 -0.447707
H -0.191997 -1.202124 1.449833
H -0.663461 -2.530768 0.363649