29

C 3.028300 0.000000 0.449067
C 1.760316 0.000000 1.272968
Sn 0.000000 0.000000 0.000000
C 0.000000 1.760316 -1.272968
C 0.000000 3.028300 -0.449067
C 0.000000 -1.760316 -1.272968
C 0.000000 -3.028300 -0.449067
C -1.760316 0.000000 1.272968
C -3.028300 0.000000 0.449067
H 3.920206 0.000000 1.089721
H 3.102199 -0.884059 -0.196572
H 3.102199 0.884059 -0.196572
H 1.699812 -0.880310 1.921974
H 1.699812 0.880310 1.921974
H 0.880310 1.699812 -1.921974
H -0.880310 1.699812 -1.921974
H 0.000000 3.920206 -1.089721
H -0.884059 3.102199 0.196572
H 0.884059 3.102199 0.196572
H -0.880310 -1.699812 -1.921974
H 0.880310 -1.699812 -1.921974
H 0.884059 -3.102199 0.196572
H -0.884059 -3.102199 0.196572
H 0.000000 -3.920206 -1.089721
H -1.699812 -0.880310 1.921974
H -1.699812 0.880310 1.921974
H -3.102199 -0.884059 -0.196572
H -3.920206 0.000000 1.089721
H -3.102199 0.884059 -0.196572