15

N -3.544385 0.584641 -0.000070
C -2.570460 -0.054945 0.000015
C -1.435264 -0.863828 0.000015
H -1.605512 -1.943550 0.000015
N -0.149951 -0.385789 0.000011
C 0.908618 -1.284254 0.000009
C 2.228692 -0.835866 0.000005
C 2.511004 0.533118 0.000004
C 1.444977 1.434045 0.000006
C 0.127229 0.971489 0.000009
H 0.679145 -2.357179 0.000010
H 3.038822 -1.572325 0.000004
H 3.541708 0.888707 0.000001
H 1.626513 2.513699 0.000005
H -0.709104 1.680137 0.000011