77

C -1.358943 7.674419 -0.368683
C -1.405089 6.382254 0.443884
C -0.680790 5.228211 -0.273703
C -0.738699 3.939735 0.548531
Si 0.078681 2.413000 -0.222928
C -0.813592 1.996231 -1.817177
C 1.869008 2.814688 -0.611275
C -0.026927 1.058229 1.055949
Si 0.107426 -0.748299 0.603698
H 0.157615 -1.482891 1.878080
C -1.362170 -1.408146 -0.352591
Si -3.074912 -1.381297 0.387738
C -3.093013 -1.989073 2.160572
C -3.824624 0.334602 0.313436
C -4.127263 -2.549929 -0.670850
C -5.606176 -2.653232 -0.293771
C -6.353632 -3.627237 -1.223144
C -7.831848 -3.740110 -0.856686
C 1.656159 -1.152412 -0.371870
Si 3.261612 -1.399488 0.546728
C 3.666052 0.037798 1.677684
C 3.222807 -2.983025 1.550648
C 4.611680 -1.540074 -0.775870
C 6.026355 -1.831842 -0.272761
C 7.027911 -1.918545 -1.439273
C 8.443273 -2.219536 -0.951173
H -0.328920 8.002584 -0.548567
H -1.835884 7.553330 -1.347989
H -1.877350 8.489112 0.148739
H -0.951124 6.547685 1.439698
H -2.457290 6.099469 0.639927
H -1.136973 5.075786 -1.272384
H 0.371138 5.519619 -0.467027
H -0.265852 4.097861 1.543323
H -1.796927 3.667284 0.761446
H -0.835767 2.860036 -2.495582
H -0.319224 1.166195 -2.342394
H -1.852463 1.694582 -1.615160
H 2.406226 3.144205 0.289024
H 2.393325 1.933631 -1.009785
H 1.937651 3.616988 -1.358903
H 0.789754 1.265996 1.800588
H -1.004691 1.169237 1.598056
H -1.420532 -0.861657 -1.329632
H -1.121979 -2.479399 -0.589465
H -2.533891 -1.303131 2.814430
H -4.120509 -2.059445 2.543531
H -2.630461 -2.982672 2.243548
H -3.911114 0.684470 -0.724986
H -4.828643 0.346339 0.759745
H -3.202301 1.060372 0.858090
H -4.022724 -2.216392 -1.727473
H -3.649271 -3.553853 -0.627212
H -5.718449 -2.990764 0.756120
H -6.091010 -1.657426 -0.341100
H -6.251262 -3.295170 -2.274113
H -5.878610 -4.626109 -1.179364
H -7.967567 -4.103313 0.168413
H -8.340941 -2.772227 -0.927432
H -8.355026 -4.435491 -1.522300
H 1.469230 -2.097075 -0.946464
H 1.809253 -0.341461 -1.129664
H 2.955446 0.090804 2.515827
H 4.677259 -0.057031 2.096150
H 3.609189 0.992210 1.132970
H 3.007046 -3.852446 0.914460
H 4.188492 -3.155732 2.046014
H 2.446797 -2.935159 2.328387
H 4.288734 -2.328569 -1.491661
H 4.598083 -0.589183 -1.354613
H 6.357994 -1.046901 0.436242
H 6.048545 -2.781150 0.299266
H 6.703508 -2.698947 -2.154175
H 7.020737 -0.969983 -2.009803
H 8.809298 -1.443626 -0.269267
H 8.490809 -3.172992 -0.412757
H 9.148454 -2.280450 -1.787356