16

C 2.240954 0.028486 0.000149
C 0.760384 0.085140 -0.000307
C -0.021516 1.177424 -0.000301
C -1.486475 0.822742 -0.000068
C -1.524598 -0.727581 0.000385
C -0.048875 -1.194880 -0.000166
H 2.702284 1.025528 -0.011475
H 2.623209 -0.494017 0.889638
H 2.623662 -0.514972 -0.876409
H 0.287477 2.206540 -0.000465
H -1.999747 1.239969 0.883501
H -1.999897 1.239460 -0.883791
H -2.060462 -1.109884 0.883127
H -2.061314 -1.110408 -0.881611
H 0.182441 -1.814989 -0.882885
H 0.183089 -1.815217 0.882216