22

C 2.225290 -0.055843 -0.764088
C 1.234806 0.063225 0.124523
C 0.655650 1.400896 0.510743
C -0.704053 1.657877 -0.155823
C -1.737401 0.552012 0.102512
C -1.436099 -0.732485 -0.682338
C -0.549092 -1.740314 0.062637
C 0.634708 -1.126954 0.828310
H 2.672542 0.779421 -1.276650
H 2.657986 -1.000264 -1.050075
H 0.549294 1.459094 1.613523
H 1.352146 2.221298 0.242603
H -1.102858 2.624918 0.209976
H -0.560759 1.786444 -1.247041
H -1.797410 0.333662 1.185337
H -2.740447 0.926053 -0.182701
H -2.388575 -1.230444 -0.951338
H -0.958392 -0.470798 -1.647707
H -1.166419 -2.319298 0.777759
H -0.165914 -2.479441 -0.669185
H 1.405206 -1.907705 0.991755
H 0.300753 -0.833433 1.844894