10

C -1.638616 0.000000 -0.000161
C -0.326816 0.000000 -0.000182
C 0.937256 0.767257 0.000118
C 0.937255 -0.767257 0.000152
H -2.229930 0.905552 -0.000218
H -2.229930 -0.905551 -0.000177
H 1.251600 1.303243 -0.894597
H 1.251094 1.303327 0.894959
H 1.251093 -1.303288 0.895017
H 1.251600 -1.303283 -0.894539