22

C 1.744150 1.956007 -0.000015
N 1.082019 0.646827 -0.000029
C -0.314991 0.463267 0.000002
C -0.558965 -0.955216 0.000009
C -1.887351 -1.420370 0.000029
C -2.918225 -0.495889 0.000042
C -2.660885 0.899524 0.000036
C -1.369125 1.396973 0.000016
C 0.719497 -1.605877 -0.000005
C 1.702462 -0.621784 -0.000026
C 3.170254 -0.785582 -0.000047
H 1.460379 2.540514 0.895163
H 2.843430 1.855143 -0.000238
H 1.460039 2.540700 -0.894964
H -2.086285 -2.489754 0.000034
H -3.953485 -0.833654 0.000058
H -3.506906 1.586193 0.000048
H -1.167091 2.464355 0.000012
H 0.876016 -2.663906 -0.000003
H 3.640819 -0.332128 -0.887122
H 3.640847 -0.332098 0.886998
H 3.457183 -1.849471 -0.000034