27

O 0.862611 1.325650 -1.774905
C 1.476513 0.731645 -0.895775
O 2.766869 1.222404 -0.722727
C 3.694043 0.527626 0.186224
C 4.790743 1.548123 0.418287
C 2.964221 0.107174 1.456812
C 1.714834 -0.704130 1.149013
C 1.050901 -0.330567 -0.053036
I -0.663181 -1.332691 -0.616826
C -2.086315 0.150255 0.053709
C -2.044260 1.390708 -0.566816
C -2.994226 2.342030 -0.172750
C -3.934239 2.030650 0.816241
C -3.932521 0.770114 1.424971
C -2.991278 -0.197374 1.046199
O 1.356559 -1.584342 1.924698
H 4.052933 -0.356932 -0.388013
H 4.410891 2.465575 0.887770
H 5.580270 1.147279 1.067652
H 5.262387 1.849849 -0.527395
H 3.644148 -0.467964 2.119657
H 2.669308 0.992279 2.062762
H -1.293705 1.631109 -1.332016
H -2.995089 3.328294 -0.641720
H -4.672549 2.777846 1.117579
H -4.663174 0.534919 2.201685
H -2.985617 -1.176830 1.528814