13

C 0.770559 1.186190 0.072712
N -0.000051 0.000001 -0.412523
C 0.642063 -1.260397 0.072687
C -1.412621 0.074196 0.072745
H 1.799124 1.137253 -0.317852
H 0.311549 2.105660 -0.323203
H 0.829669 1.282678 1.167327
H 0.693713 -1.360959 1.167342
H 0.087125 -2.126775 -0.320132
H 1.668860 -1.321061 -0.320847
H -1.885227 0.988036 -0.320158
H -1.978779 -0.784449 -0.321045
H -1.525682 0.079677 1.167363