14

C -1.780307 -0.644839 -0.003184
C -0.465553 0.031582 -0.359318
O -0.470631 1.401960 0.090905
C 0.740960 -0.699734 0.263234
N 2.021173 -0.093776 -0.216775
H -2.637637 -0.055835 -0.354580
H -1.862794 -1.638690 -0.461790
H -1.906986 -0.777911 1.078673
H -0.345699 0.156225 -1.461176
H -0.668245 1.458576 1.049852
H 0.653060 -0.704823 1.371312
H 0.735266 -1.768644 -0.050026
H 1.923513 0.923234 -0.254810
H 2.755759 -0.273432 0.468330