19

O 3.885908 0.372516 -0.000015
N 2.703869 -0.092670 -0.000010
C 1.665480 0.761439 -0.000026
H 1.905787 1.826460 -0.000053
C 0.256011 0.418534 -0.000009
C -0.223572 -0.905274 -0.000029
C -1.592486 -1.167936 -0.000021
C -2.523337 -0.117376 0.000007
C -3.987326 -0.411686 0.000012
C -2.053183 1.205278 0.000031
C -0.685471 1.471325 0.000023
O 2.583334 -1.348741 0.000032
H 0.489150 -1.732502 -0.000050
H -1.942922 -2.199412 -0.000038
H -4.280624 -0.997707 0.883056
H -4.605452 0.495763 -0.000014
H -4.280623 -0.997757 -0.882998
H -2.761205 2.033345 0.000054
H -0.341832 2.504471 0.000041