16

Cl -3.119505 -0.382040 -0.000013
C -1.425791 -0.001204 0.000003
C -1.063357 1.369524 0.000001
C 0.270728 1.729851 -0.000001
C 1.229331 0.694061 0.000000
C 0.850864 -0.697645 0.000000
C 2.064643 -1.463083 -0.000036
C 3.123656 -0.566948 0.000056
N 2.630275 0.747831 0.000008
C -0.515360 -1.039700 0.000003
H -1.843495 2.132253 -0.000002
H 0.580817 2.774086 0.000000
H 2.125105 -2.533264 -0.000058
H 4.185706 -0.766535 0.000083
H 3.186568 1.588364 0.000005
H -0.823313 -2.084179 -0.000012