16

C 2.209150 0.000000 0.000000
C 0.876981 0.000000 0.000000
C 0.014595 -1.235289 -0.051776
C -1.444603 -0.765166 0.093797
C -1.444603 0.765166 -0.093797
C 0.014595 1.235289 0.051776
H 2.804908 -0.897369 -0.033342
H 2.804908 0.897369 0.033343
H 0.168353 -1.772324 -1.007078
H 0.290031 -1.952492 0.742606
H -2.100507 -1.258198 -0.642275
H -1.841132 -1.034828 1.088194
H -1.841132 1.034828 -1.088194
H -2.100507 1.258198 0.642275
H 0.168353 1.772324 1.007077
H 0.290031 1.952491 -0.742607