13

C 2.799950 -0.480822 0.000045
O 1.846116 0.618383 0.000045
C 0.524091 0.275064 0.000016
C -0.060624 -0.957937 -0.000017
S -1.786857 -0.762792 -0.000050
C -1.697512 0.983566 -0.000012
C -0.406632 1.397379 0.000018
H 2.680559 -1.084255 0.904912
H 2.680589 -1.084230 -0.904842
H 3.761632 0.047530 0.000069
H 0.396279 -1.929996 -0.000025
H -2.595872 1.583365 -0.000018
H -0.058044 2.421693 0.000043