22

C -2.610685 -1.233908 -0.006965
C -1.916950 -0.102393 0.144917
C -0.478530 -0.103371 0.601654
C 0.478530 -0.103371 -0.601654
C 1.916950 -0.102393 -0.144918
C 2.509214 1.245849 0.118243
C 2.610685 -1.233908 0.006965
C -2.509214 1.245849 -0.118242
H -3.638062 -1.266383 -0.331549
H -2.202110 -2.213783 0.181034
H -0.276461 0.775542 1.247050
H -0.272546 -0.987133 1.240169
H 0.272546 -0.987133 -1.240169
H 0.276461 0.775543 -1.247050
H 1.879266 1.839282 0.795762
H 3.507728 1.192027 0.571355
H 2.609842 1.823387 -0.812080
H 2.202110 -2.213783 -0.181034
H 3.638061 -1.266383 0.331549
H -2.609842 1.823387 0.812081
H -1.879266 1.839282 -0.795761
H -3.507728 1.192028 -0.571355