22

C -1.652963 1.838652 -0.382240
C -1.304998 0.579077 0.411320
N -0.000009 0.000795 -0.063029
C 1.154037 0.842048 0.409168
C 2.419825 0.509773 -0.381064
C 0.152463 -1.419497 0.408684
C -0.768363 -2.350379 -0.380675
H -0.921634 2.640407 -0.221860
H -1.678212 1.640059 -1.460491
H -2.637013 2.223558 -0.092525
H -1.301696 0.803215 1.500348
H -2.101206 -0.183930 0.252600
H 0.892597 1.912650 0.245704
H 1.345125 0.731187 1.498886
H 2.749181 -0.523252 -0.213987
H 2.261716 0.623862 -1.460232
H 3.244237 1.172221 -0.094811
H 1.210470 -1.727889 0.244451
H -0.038185 -1.529506 1.498569
H -1.827442 -2.112707 -0.221119
H -0.583774 -2.279166 -1.459356
H -0.614118 -3.394319 -0.086134