17

Cl -3.309681 -1.609541 0.126047
C -2.503632 -0.407154 -0.765641
H -2.605064 -0.483876 -1.829679
S -1.678613 0.747608 -0.041448
C 0.038756 0.386286 -0.047115
C 0.967594 1.424796 0.044145
C 2.339310 1.146071 0.068599
C 2.742168 -0.187647 -0.003876
Cl 4.435999 -0.551099 0.031563
C 1.834017 -1.242572 -0.102094
C 0.467360 -0.940117 -0.122802
O -1.796719 2.080231 -0.723099
O -2.029805 0.893252 1.412418
H 0.631290 2.466010 0.092185
H 3.069038 1.952472 0.142501
H 2.175012 -2.276104 -0.161869
H -0.261134 -1.755203 -0.201182