18

C 1.765280 -1.044921 -0.000055
C 0.809986 -0.110149 -0.000004
C 1.133128 1.350247 0.000068
C -0.662304 -0.495614 -0.000023
C -1.358798 0.016679 1.266333
C -1.358796 0.016797 -1.266331
H 1.568650 -2.104758 -0.000109
H 2.819745 -0.820870 -0.000045
H 0.712842 1.852661 -0.882806
H 0.712805 1.852584 0.882968
H 2.212826 1.546990 0.000100
H -0.737911 -1.615372 -0.000075
H -2.390044 -0.349112 1.324465
H -0.838826 -0.317199 2.171101
H -1.401102 1.111350 1.296487
H -0.838825 -0.317001 -2.171130
H -2.390044 -0.348983 -1.324496
H -1.401094 1.111471 -1.296387