45

C 2.350660 1.397455 2.759822
C 1.811506 0.196830 2.508471
C 2.636590 -1.055140 2.550079
C 0.359043 0.017011 2.209759
Si -0.111730 0.003392 0.385272
C 0.199479 1.672268 -0.405703
C 1.493698 2.221640 -0.374773
C 1.755246 3.463244 -0.963370
C 0.726589 4.171398 -1.593066
C -0.562771 3.634294 -1.632638
C -0.824197 2.391598 -1.042576
C 0.843651 -1.318925 -0.538238
C 1.577247 -1.032136 -1.699551
C 2.276709 -2.043776 -2.369787
C 2.248344 -3.354012 -1.886105
C 1.517820 -3.652976 -0.730981
C 0.819599 -2.642719 -0.062217
C -1.945518 -0.386973 0.285940
C -2.859976 0.371372 1.038853
C -4.231255 0.104151 0.974075
C -4.707383 -0.924179 0.153964
C -3.808790 -1.681593 -0.601513
C -2.435825 -1.413402 -0.536327
H 3.391115 1.547896 2.988886
H 1.790509 2.317076 2.743580
H 2.220069 -1.791226 3.250701
H 2.675383 -1.541238 1.563078
H 3.673979 -0.869912 2.855886
H -0.026756 -0.935156 2.650487
H -0.247921 0.825103 2.689646
H 2.314167 1.686761 0.115178
H 2.761110 3.878888 -0.931206
H 0.930292 5.138540 -2.050879
H -1.366059 4.182017 -2.122734
H -1.841537 1.993366 -1.088532
H 1.614226 -0.015272 -2.099974
H 2.842587 -1.807373 -3.269663
H 2.792177 -4.141275 -2.406690
H 1.492766 -4.673919 -0.353011
H 0.254406 -2.901491 0.837633
H -2.514747 1.183241 1.684717
H -4.929344 0.697719 1.562485
H -5.775461 -1.132342 0.104173
H -4.175259 -2.481788 -1.242829
H -1.754276 -2.019677 -1.139467