17

C -0.019109 0.763459 1.261387
C -0.019109 -0.773801 1.240238
N -0.689381 -1.284107 0.000000
C -0.019109 -0.773801 -1.240238
C -0.019109 0.763459 -1.261387
C 0.642382 1.333426 0.000000
H -1.057155 1.137930 1.342765
H 0.506505 1.121315 2.166406
H 1.022558 -1.147968 1.345870
H -0.589080 -1.166098 2.110275
H -0.632044 -2.313095 0.000000
H 1.022558 -1.147968 -1.345870
H -0.589080 -1.166098 -2.110275
H 0.506505 1.121315 -2.166406
H -1.057155 1.137930 -1.342765
H 0.572474 2.437191 0.000000
H 1.723911 1.097844 0.000000