23

C -3.473770 -1.203888 -0.023437
C -2.095245 -0.681934 -0.282658
O -1.257649 -1.290433 -0.935609
N -1.836179 0.579851 0.277117
C -0.592822 1.296851 0.202671
C -0.591800 2.635562 0.261878
C 0.661780 0.504968 0.127041
C 1.534756 0.682289 -0.956975
C 2.737834 -0.027623 -1.002773
C 3.074718 -0.907924 0.030548
C 2.205332 -1.081201 1.112899
C 0.999166 -0.377911 1.164669
H -3.723642 -1.246795 1.048720
H -4.253214 -0.592720 -0.507077
H -3.590378 -2.227077 -0.415554
H -2.612393 1.089880 0.720140
H 0.316922 3.219738 0.253805
H -1.478743 3.246989 0.328916
H 1.274014 1.369916 -1.761450
H 3.415523 0.107471 -1.846099
H 4.014851 -1.458171 -0.006857
H 2.469288 -1.765854 1.919247
H 0.322525 -0.513996 2.008091