20

C -3.617586 -0.375887 -0.000043
O -2.310043 -1.007922 -0.000082
C -1.198971 -0.201130 -0.000033
C -1.218761 1.203669 0.000013
C 0.000000 1.885616 0.000054
C 1.218761 1.203669 0.000051
C 1.198971 -0.201130 0.000004
O 2.310043 -1.007922 -0.000011
C 3.617586 -0.375888 0.000071
C 0.000000 -0.930627 -0.000039
H -4.288901 -1.244887 -0.000053
H -3.750612 0.222566 0.906133
H -3.750638 0.222609 -0.906187
H -2.151794 1.756574 0.000015
H 0.000000 2.978790 0.000089
H 2.151794 1.756574 0.000082
H 3.750667 0.222609 -0.906068
H 3.750582 0.222565 0.906252
H 4.288901 -1.244887 0.000083
H 0.000000 -2.015501 -0.000074