29

C 3.923673 -0.367174 0.766174
C 3.195065 0.467808 0.024950
C 2.349432 0.038079 -1.120389
B 0.860596 0.025697 -0.610823
O 0.122028 -1.141761 -0.435381
C -1.215004 -0.806027 0.047860
C -2.178160 -1.375728 -0.985650
C -1.356447 -1.514796 1.388643
C -1.212181 0.780976 0.140730
C -2.166693 1.469717 -0.826171
C -1.360687 1.330091 1.553608
O 0.129239 1.167147 -0.291559
H 4.527034 -0.044476 1.601588
H 3.974360 -1.432985 0.599332
H 3.176484 1.541953 0.233091
H 2.416413 0.736846 -1.973837
H 2.602479 -0.966917 -1.500216
H -2.063720 -2.465163 -1.069922
H -3.223517 -1.176656 -0.722306
H -1.996778 -0.967567 -1.988137
H -0.583551 -1.204760 2.103418
H -2.335574 -1.330288 1.846017
H -1.250235 -2.601982 1.271335
H -3.214480 1.249216 -0.590900
H -2.045462 2.560859 -0.787139
H -1.983215 1.175689 -1.867509
H -0.588364 0.942687 2.230382
H -1.258625 2.423944 1.562494
H -2.340363 1.090348 1.983420