22

C -2.867342 1.130720 0.200345
C -2.156273 0.014638 0.021250
C -2.317288 -1.197296 0.881447
C -1.133357 -0.110635 -1.084915
C 0.266995 -0.025393 -0.540316
C 1.062837 -1.176344 -0.439049
C 2.364301 -1.085788 0.063066
C 2.879197 0.149276 0.468023
C 2.086269 1.297875 0.370633
C 0.785606 1.213762 -0.130821
H -2.763974 2.011951 -0.412149
H -3.606657 1.248394 0.976512
H -2.944460 -1.013616 1.763576
H -2.781982 -2.022826 0.323215
H -1.346498 -1.565326 1.244900
H -1.290664 -1.065211 -1.632280
H -1.285881 0.678779 -1.853351
H 0.668764 -2.142543 -0.750287
H 2.978805 -1.982691 0.138750
H 3.893214 0.217365 0.857810
H 2.484529 2.261845 0.686741
H 0.169125 2.108993 -0.201422