28

C 1.054488 -0.616746 0.018095
C 2.323049 -1.340590 -0.371280
C 3.419713 -0.346084 -0.775527
C 3.637518 0.721655 0.303492
C 2.330944 1.460158 0.619535
C 1.220734 0.486369 1.037061
N -0.055286 -1.007187 -0.522913
C -1.334981 -0.433475 -0.257492
C -1.759546 0.706470 -0.966943
C -3.064964 1.171204 -0.799714
C -3.944613 0.517838 0.069892
C -3.516031 -0.610527 0.777489
C -2.215232 -1.091766 0.622658
H 2.658505 -1.955694 0.491197
H 2.143277 -2.061374 -1.195941
H 4.363253 -0.893053 -0.966593
H 3.150592 0.136422 -1.735995
H 4.039807 0.254138 1.222952
H 4.407510 1.443514 -0.030128
H 2.497658 2.200346 1.425997
H 2.003249 2.042807 -0.264014
H 0.274425 1.041530 1.197647
H 1.463430 0.030554 2.021263
H -1.076405 1.214740 -1.644258
H -3.398952 2.051557 -1.350120
H -4.960698 0.886597 0.196039
H -4.201898 -1.118432 1.456586
H -1.883236 -1.970373 1.172172