28

O 0.168488 -1.752425 1.218124
S 0.353015 -0.915809 -0.000476
C -0.631459 0.415870 -0.000421
C -0.060829 1.676706 -0.000871
N 0.414851 2.743244 -0.001376
C -2.069534 0.282946 -0.000051
C -2.899028 1.432485 0.000127
C -4.286311 1.314395 0.000490
C -4.896050 0.055214 0.000684
C -4.091287 -1.087127 0.000497
C -2.700598 -0.982996 0.000125
C 1.993883 -0.356185 0.000107
C 2.659226 -0.139631 1.210786
C 3.984440 0.305437 1.213058
C 4.646779 0.528882 0.000999
C 3.985354 0.305154 -1.211506
C 2.660139 -0.139911 -1.210122
O 0.169144 -1.751776 -1.219618
H -2.453653 2.423803 -0.000009
H -4.903558 2.213363 0.000627
H -5.977984 -0.032428 0.000976
H -4.554524 -2.074552 0.000641
H -2.115336 -1.900114 -0.000008
H 2.148564 -0.320645 2.161729
H 4.500542 0.476238 2.157988
H 5.682009 0.876170 0.001348
H 4.502166 0.475728 -2.156089
H 2.150184 -0.321156 -2.161404