28

N -0.999887 -0.332599 -0.716104
C -1.902870 0.850117 -0.920564
C -2.895805 0.904009 0.257379
C -2.827012 -0.475671 0.934392
C -1.769126 -1.287355 0.157938
C 0.351018 -0.065335 -0.271550
C 0.843371 1.162594 -0.023694
C 2.287590 1.433475 0.267512
C 3.085045 0.166070 0.610960
C 2.701875 -0.987085 -0.323442
C 1.206113 -1.311114 -0.207110
H -1.342965 1.798403 -1.035881
H -2.436213 0.676983 -1.879918
H -2.627773 1.705717 0.966503
H -3.915952 1.133759 -0.092357
H -2.551511 -0.380803 1.998554
H -3.805777 -0.983544 0.917079
H -2.253370 -2.023674 -0.517797
H -1.113512 -1.859882 0.839968
H 0.214690 2.050863 -0.050989
H 2.741134 1.934025 -0.614450
H 2.371213 2.161570 1.099937
H 4.169492 0.369871 0.543456
H 2.895167 -0.124027 1.662013
H 2.947248 -0.720613 -1.369702
H 3.299817 -1.887507 -0.089276
H 1.008794 -1.836982 0.750933
H 0.917539 -2.024191 -1.006270