25

O -0.403376 1.964583 -0.843942
C -0.455045 0.847233 -0.300261
C -1.833055 0.241818 -0.117608
C -2.580765 0.541900 1.026630
C -3.855120 -0.010841 1.187878
C -4.380427 -0.860172 0.208384
C -3.630739 -1.157716 -0.934508
C -2.355828 -0.607490 -1.099547
C 0.609957 0.066538 0.169604
H 0.366433 -0.887007 0.631643
C 1.977693 0.387937 0.109690
O 2.723896 -0.635513 0.723250
C 4.174717 -0.534625 0.729619
C 4.737035 -1.154771 -0.534899
O 2.606784 1.345263 -0.340770
H -2.172462 1.202438 1.790694
H -4.438890 0.220435 2.078712
H -5.373583 -1.290242 0.335821
H -4.039923 -1.819564 -1.697653
H -1.772559 -0.841192 -1.989579
H 4.466472 0.523516 0.846856
H 4.435140 -1.105991 1.639315
H 4.412133 -2.194951 -0.658902
H 4.413874 -0.608475 -1.429961
H 5.834391 -1.152508 -0.525150