17

H 3.065997 1.782754 -0.000108
C 2.755582 0.724110 0.000193
C 1.340932 0.441465 0.000147
C 0.435841 1.533749 0.000070
C -0.930708 1.316365 0.000008
C -1.428306 -0.006161 0.000018
N -2.861514 -0.235382 -0.000050
O -3.615557 0.734178 -0.000116
O -3.278319 -1.390575 -0.000037
C -0.540228 -1.101243 0.000093
C 0.828876 -0.877342 0.000153
N 3.699698 -0.183545 -0.000020
N 4.527743 -0.948665 -0.000365
H 0.821563 2.555312 0.000052
H -1.633443 2.157283 -0.000055
H -0.938970 -2.122353 0.000098
H 1.502436 -1.734351 0.000206