29

C 0.373802 2.110076 -0.997205
C 0.151679 1.069783 -0.178192
C -1.209092 0.460356 -0.106403
C -1.680398 -0.312719 -1.177686
C -2.963711 -0.863523 -1.125336
C -3.777671 -0.644143 -0.009113
C -3.307750 0.128908 1.057719
C -2.025036 0.681824 1.012723
N 1.106372 0.565523 0.768948
C 1.032423 -0.898689 1.064946
C 1.710091 -1.739869 -0.026385
O 3.076902 -1.312395 -0.221847
C 3.200004 0.092454 -0.541005
C 2.533298 0.951728 0.542943
H 1.322744 2.603341 -1.121181
H -0.404177 2.550002 -1.599891
H -1.048541 -0.479745 -2.049637
H -3.330696 -1.464234 -1.957592
H -4.778151 -1.074359 0.028742
H -3.942501 0.300970 1.927076
H -1.657220 1.282973 1.844134
H 1.538934 -1.060079 2.044724
H -0.021885 -1.219081 1.208311
H 1.832300 -2.796824 0.270929
H 1.177027 -1.678523 -0.991174
H 4.295175 0.231918 -0.577265
H 2.763960 0.269051 -1.539776
H 2.604465 2.031592 0.287442
H 3.062915 0.826381 1.515259