17

C -2.516529 -0.157183 -0.358209
C -1.257222 -0.587001 0.386571
C 0.011966 0.077202 -0.184072
N 0.063858 1.526257 0.169184
C 1.258436 -0.692015 0.319111
O 2.360228 -0.124385 -0.425359
H -3.408990 -0.632167 0.066350
H -2.666183 0.927691 -0.305543
H -2.475671 -0.428622 -1.419656
H -1.358683 -0.355244 1.465940
H -1.156071 -1.690406 0.331468
H 0.000352 0.021188 -1.305623
H 0.989863 1.896965 -0.052449
H -0.063392 1.658196 1.171697
H 1.446141 -0.547450 1.396660
H 1.199001 -1.772354 0.101584
H 3.184893 -0.612537 -0.212248