38

F -2.327630 2.465026 1.061935
B -1.611009 2.346991 -0.112725
F -2.502688 1.867582 -1.051402
F -1.401898 3.658864 -0.508632
C -0.238098 1.519989 0.019100
N -0.074921 0.119905 -0.220471
C -1.038511 -0.914706 -0.393168
O -2.183948 -0.655003 0.261691
C -3.305820 -1.686473 0.286992
C -2.760931 -2.925893 0.974033
C -4.321935 -0.934940 1.132917
C -3.764841 -1.929620 -1.137052
O -0.795714 -1.927821 -1.029363
C 0.993081 2.080416 0.261636
C 2.005780 1.051995 0.168756
C 1.333875 -0.177860 -0.150863
C 2.023960 -1.376216 -0.332454
C 3.410263 -1.360362 -0.192280
C 4.068506 -0.153683 0.125144
O 5.433658 -0.029019 0.290204
C 6.256663 -1.209136 0.106339
C 3.392809 1.062264 0.310618
H -2.336431 -2.698874 1.960063
H -3.550607 -3.673757 1.128600
H -1.971194 -3.412127 0.383803
H -4.725701 -0.054150 0.618601
H -5.173458 -1.581422 1.386213
H -3.887729 -0.583077 2.078702
H -2.977475 -2.389987 -1.751684
H -4.629295 -2.607586 -1.162694
H -4.069825 -1.005330 -1.642553
H 1.204181 3.110466 0.473949
H 1.493162 -2.297013 -0.581854
H 3.972439 -2.280604 -0.331283
H 5.994844 -1.975785 0.841609
H 6.166474 -1.581924 -0.918341
H 7.264923 -0.816927 0.293335
H 3.934348 1.970678 0.554786