38

O 1.562311 2.416473 -0.085654
C 1.461615 1.175219 -0.062830
C 2.773320 0.426228 -0.013703
C 3.477884 0.174259 -1.197094
C 4.723412 -0.458978 -1.141702
C 5.266959 -0.832734 0.091700
C 4.562134 -0.576098 1.272455
C 3.315276 0.054705 1.222881
C 0.228184 0.478538 -0.071691
C 0.103562 -0.932453 -0.122749
C -1.290865 -1.519247 -0.037346
C -1.998874 -1.810829 -1.209052
C -3.273351 -2.380245 -1.126813
C -3.837876 -2.659486 0.122205
C -3.127365 -2.368066 1.291296
C -1.853267 -1.796995 1.213839
O 1.030914 -1.748128 -0.232842
C -1.000432 1.291505 -0.028361
C -1.475279 1.803557 1.193111
C -2.636259 2.578678 1.228040
C -3.338858 2.852077 0.049975
C -2.872740 2.344799 -1.167401
C -1.711977 1.570131 -1.210213
H 3.055981 0.465282 -2.157845
H 5.272295 -0.658910 -2.061526
H 6.238936 -1.322752 0.132785
H 4.986007 -0.866402 2.233373
H 2.766779 0.252416 2.142624
H -1.561059 -1.590249 -2.182060
H -3.827291 -2.606300 -2.037658
H -4.831200 -3.103051 0.184435
H -3.567220 -2.584775 2.264546
H -1.302711 -1.565131 2.124947
H -0.933572 1.589981 2.111096
H -2.997790 2.970942 2.178087
H -4.243106 3.455358 0.080277
H -3.418359 2.555387 -2.086703
H -1.354710 1.174072 -2.157689