17

C 1.952474 -0.028493 0.519017
C 0.820718 0.033612 -0.509423
N -0.027076 -1.208737 -0.401503
C -1.256430 -0.831838 0.369453
C -1.458946 0.690512 0.219577
C -0.115039 1.251007 -0.275691
H 2.584693 -0.909629 0.361431
H 2.594749 0.856509 0.455261
H 1.569080 -0.087032 1.543923
H 1.268884 0.085570 -1.532127
H -0.300700 -1.510848 -1.345448
H -2.135737 -1.407090 0.025958
H -1.090461 -1.100926 1.433081
H -2.269200 0.915640 -0.494261
H -1.759988 1.147967 1.176472
H 0.315377 1.955207 0.455421
H -0.243829 1.826987 -1.206789