37

C 0.164065 1.544853 -0.653382
H 0.040260 1.184252 -1.702776
C 0.015987 0.342650 0.322304
C -1.310587 -0.371009 0.147698
C -1.746609 -0.814304 -1.110320
C -2.969486 -1.478103 -1.238654
C -3.768167 -1.708740 -0.114305
C -3.337011 -1.271336 1.141849
C -2.115533 -0.605846 1.274362
C 1.141717 -0.662376 0.177681
C 1.758311 -1.164117 1.335569
C 2.792307 -2.098446 1.235740
C 3.221612 -2.541758 -0.019137
C 2.609682 -2.046240 -1.174505
C 1.574046 -1.112593 -1.078724
N -0.907426 2.551592 -0.334621
C -0.268132 3.623613 0.495454
C 1.244136 3.612354 0.192971
C 1.529666 2.263280 -0.488336
H 0.054492 0.774551 1.360643
H -1.132696 -0.642151 -1.993782
H -3.300915 -1.817153 -2.220235
H -4.720658 -2.225885 -0.216423
H -3.955405 -1.449135 2.021721
H -1.789877 -0.269529 2.258146
H 1.431588 -0.826352 2.318896
H 3.265319 -2.482103 2.139859
H 4.028318 -3.269042 -0.095878
H 2.940441 -2.388789 -2.155182
H 1.105530 -0.735578 -1.987415
H -1.258060 2.958938 -1.210722
H -0.728990 4.609154 0.299051
H -0.456258 3.386513 1.563577
H 1.526174 4.454647 -0.461396
H 1.836309 3.733171 1.115350
H 2.241901 1.663195 0.102849
H 2.008488 2.408859 -1.471529