43

O 1.007110 1.432529 2.052074
C 0.209314 1.466540 1.094979
C -0.910121 0.589187 1.006856
C -1.950071 0.746402 0.074514
O -2.957025 -0.225891 0.214236
C -4.081965 -0.194612 -0.705706
C -3.838514 -1.189486 -1.825532
O -2.139367 1.608301 -0.796644
C -0.947814 -0.593413 1.938413
C -0.454578 -1.899116 1.279827
C 1.070716 -1.932876 1.117410
C 1.525178 -2.710530 -0.125727
C 2.902207 -2.265472 -0.646530
C 2.859131 -0.972426 -1.479126
C 2.873480 0.292520 -0.610904
C 2.369787 1.533935 -1.357120
C 1.916770 2.646625 -0.397204
C 0.448478 2.529420 0.028642
H -4.923960 -0.489389 -0.053646
H -4.234702 0.833309 -1.078532
H -4.707800 -1.256364 -2.492051
H -2.973370 -0.912013 -2.438605
H -3.643832 -2.196870 -1.437679
H -0.336101 -0.378333 2.836796
H -1.983564 -0.748487 2.302264
H -0.789420 -2.765137 1.878242
H -0.948830 -2.006983 0.296163
H 1.445838 -0.880782 1.052567
H 1.542741 -2.353118 2.022121
H 1.552679 -3.792685 0.104539
H 0.776612 -2.604434 -0.935188
H 3.608876 -2.151934 0.196887
H 3.323177 -3.077033 -1.272996
H 3.720483 -0.953814 -2.174073
H 1.960698 -0.980027 -2.126406
H 2.235569 0.124558 0.293003
H 3.890583 0.471110 -0.218279
H 3.169023 1.918719 -2.018990
H 1.537466 1.263097 -2.034812
H 2.563421 2.660525 0.502106
H 2.064591 3.628713 -0.888469
H -0.187169 2.348086 -0.863451
H 0.099250 3.499580 0.434398