12

F -1.918923 0.206908 0.836459
B -0.789861 0.015316 0.042560
F -0.716442 -1.369417 -0.051318
F -1.240069 0.390126 -1.218887
C 0.548637 0.775640 0.579834
C 1.691916 0.416046 -0.288147
C 2.721310 -0.346272 0.089703
H 0.699449 0.496653 1.632910
H 0.347305 1.857927 0.561505
H 1.647625 0.822056 -1.303840
H 2.823318 -0.770797 1.075046
H 3.539330 -0.603459 -0.563044