30

C -1.655029 2.069447 0.000096
C -1.902696 0.755718 -0.000007
Si -0.534599 -0.574760 0.000036
C -0.818976 -1.630276 -1.539243
Si 1.457411 0.204384 -0.000020
C 1.800010 1.250377 1.531950
C 2.669488 -1.243381 -0.000033
C 1.799921 1.250341 -1.532034
C -0.818959 -1.630137 1.539413
C -3.319845 0.253185 -0.000157
H -2.430970 2.823101 0.000079
H -0.668143 2.511987 0.000204
H -0.748161 -1.026850 -2.456389
H -0.077378 -2.438988 -1.614977
H -1.812916 -2.096618 -1.526177
H 1.654577 0.668638 2.453918
H 2.835737 1.615818 1.530377
H 1.139106 2.127239 1.583597
H 2.543443 -1.879388 -0.887977
H 3.705402 -0.877546 -0.000053
H 2.543474 -1.879378 0.887923
H 1.139009 2.127199 -1.583659
H 2.835646 1.615786 -1.530530
H 1.654436 0.668583 -2.453981
H -1.812911 -2.096457 1.526414
H -0.077378 -2.438859 1.615195
H -0.748106 -1.026635 2.456505
H -4.057714 1.066819 -0.000115
H -3.529944 -0.365312 -0.884988
H -3.530066 -0.365512 0.884504