18

O -0.835684 1.607685 -0.880729
C -0.546078 0.559671 -0.304202
C 0.909193 0.206119 -0.128059
C 1.734336 1.038522 0.637973
C 3.085108 0.716335 0.800671
C 3.610529 -0.428836 0.193019
C 2.785104 -1.255515 -0.576897
C 1.432160 -0.942064 -0.735972
C -1.461124 -0.393946 0.244065
H -1.028924 -1.267511 0.739449
N -2.823578 -0.327988 0.218905
O -3.457408 0.605107 -0.313927
O -3.482442 -1.252504 0.757114
H 1.325695 1.933518 1.107887
H 3.728835 1.359498 1.401030
H 4.664732 -0.677678 0.319607
H 3.195889 -2.146935 -1.051438
H 0.787714 -1.588994 -1.332120