13

C 0.000000 1.852144 -0.582439
O 0.766208 0.879584 0.161167
C 0.000000 0.000000 0.979297
O -0.766208 -0.879584 0.161167
C 0.000000 -1.852144 -0.582439
H -0.478071 2.556456 0.104434
H 0.758593 2.352722 -1.194680
H -0.742316 1.351779 -1.210940
H 0.769320 -0.525393 1.568589
H -0.769320 0.525393 1.568589
H 0.478071 -2.556456 0.104434
H -0.758593 -2.352722 -1.194680
H 0.742316 -1.351779 -1.210940