29

C 2.882329 0.000000 0.368849
C 1.582302 -0.000001 1.153948
Ge 0.000000 0.000000 0.000000
C 0.000001 1.582302 -1.153948
C 0.000000 2.882329 -0.368849
C -0.000001 -1.582302 -1.153948
C 0.000000 -2.882329 -0.368849
C -1.582302 0.000001 1.153948
C -2.882329 0.000000 0.368849
H 3.748601 -0.000001 1.044130
H 2.982546 -0.883914 -0.273733
H 2.982546 0.883916 -0.273731
H 1.540727 -0.880775 1.821017
H 1.540727 0.880771 1.821020
H 0.880775 1.540727 -1.821017
H -0.880771 1.540727 -1.821020
H 0.000001 3.748601 -1.044130
H -0.883916 2.982546 0.273731
H 0.883914 2.982546 0.273733
H -0.880775 -1.540727 -1.821017
H 0.880771 -1.540727 -1.821020
H 0.883916 -2.982546 0.273731
H -0.883914 -2.982546 0.273733
H -0.000001 -3.748601 -1.044130
H -1.540727 -0.880771 1.821020
H -1.540727 0.880775 1.821017
H -2.982546 -0.883916 -0.273731
H -3.748601 0.000001 1.044130
H -2.982546 0.883914 -0.273733