16

C 0.242666 0.756638 0.000021
C -0.990739 1.436533 0.000057
C -2.158767 0.695036 0.000047
C -2.135982 -0.725637 0.000002
C -0.947077 -1.431191 -0.000034
C 0.247670 -0.681897 -0.000024
N 1.587702 -1.100109 -0.000054
C 2.407261 0.044079 -0.000023
C 1.616517 1.181544 0.000016
H -1.009946 2.524570 0.000090
H -3.124741 1.198119 0.000073
H -3.085687 -1.261157 -0.000004
H -0.922807 -2.517374 -0.000068
H 1.907692 -2.053179 -0.000085
H 3.482914 -0.040509 -0.000037
H 1.949367 2.199666 0.000042