15

C 2.484636 -0.616694 -0.000001
C 1.079804 -0.167427 -0.000002
N 0.712332 1.185566 0.000004
H 1.325315 1.986188 0.000007
C -0.692207 1.237098 0.000006
C -1.136200 -0.087980 -0.000001
C -2.526711 -0.584850 -0.000002
N -0.031797 -0.958313 -0.000005
H 3.033553 -0.258686 0.887092
H 2.563249 -1.716480 -0.000096
H 3.033609 -0.258529 -0.886996
H -1.244142 2.157391 0.000010
H -2.736063 -1.208494 -0.883304
H -2.736074 -1.208468 0.883315
H -3.259132 0.235434 -0.000019