16

C -2.794732 0.331723 0.000082
O -1.749497 -0.674037 0.000047
C -0.439553 -0.245696 0.000011
C 0.482050 -1.313777 0.000010
C 1.841215 -1.016574 -0.000028
C 2.280260 0.316085 -0.000064
C 1.350432 1.357328 -0.000062
C -0.023681 1.090777 -0.000025
H -2.736148 0.942361 -0.905743
H -3.704055 -0.283323 0.000130
H -2.736070 0.942384 0.905887
H 0.121853 -2.339331 0.000038
H 2.572008 -1.827109 -0.000030
H 3.345848 0.534807 -0.000093
H 1.693111 2.393528 -0.000090
H -0.736519 1.909785 -0.000025