19

O -2.087221 1.361052 -0.000039
C -2.163933 0.120782 0.000130
C -3.525673 -0.517995 -0.000062
C -1.040474 -0.753593 0.000089
H -1.240434 -1.825178 0.000082
N 0.283844 -0.361183 0.000040
C 0.666530 0.964852 0.000030
C 2.016172 1.327084 -0.000019
C 3.009294 0.347921 -0.000058
C 2.621322 -0.996029 -0.000048
C 1.270523 -1.338247 0.000000
H -4.105333 -0.205368 -0.880393
H -3.504891 -1.614523 -0.000377
H -4.105313 -0.205880 0.880466
H -0.129688 1.734285 0.000063
H 2.278598 2.389489 -0.000025
H 4.065160 0.621843 -0.000096
H 3.371912 -1.792708 -0.000077
H 0.958283 -2.390745 0.000009