59

C 6.630537 0.866843 0.000000
C 5.563982 -0.225700 0.000000
C 4.146001 0.362862 0.000000
C 3.078965 -0.739331 0.000000
C 1.657767 -0.148689 0.000000
C 0.599682 -1.253138 0.000000
Si -1.194249 -0.701868 0.000000
H -2.005862 -1.929018 0.000000
C -1.646036 0.313681 1.518133
C -1.326271 -0.346103 2.862121
C -1.818281 0.517935 4.036719
C -1.484349 -0.128126 5.387471
C -1.980388 0.729299 6.560357
C -1.650869 0.090632 7.907484
C -1.646036 0.313681 -1.518133
C -1.326271 -0.346103 -2.862121
C -1.818281 0.517935 -4.036719
C -1.484349 -0.128126 -5.387471
C -1.980388 0.729299 -6.560357
C -1.650869 0.090632 -7.907484
H 6.549923 1.512044 -0.882412
H 6.549923 1.512044 0.882412
H 7.639242 0.438536 0.000000
H 5.699095 -0.881222 -0.882628
H 5.699095 -0.881222 0.882628
H 4.012008 1.018959 0.881471
H 4.012008 1.018959 -0.881471
H 3.212381 -1.395262 -0.881292
H 3.212381 -1.395262 0.881292
H 1.533773 0.507886 0.885358
H 1.533773 0.507886 -0.885358
H 0.740630 -1.917664 -0.885888
H 0.740630 -1.917664 0.885888
H -1.139144 1.302699 1.451417
H -2.735305 0.546839 1.454419
H -1.791703 -1.351049 2.927467
H -0.233731 -0.512770 2.961555
H -1.365512 1.525911 3.976820
H -2.910106 0.678702 3.953254
H -1.932838 -1.138554 5.444945
H -0.391715 -0.284800 5.472193
H -1.530730 1.740054 6.504585
H -3.073955 0.885177 6.476930
H -0.570904 -0.041904 8.040114
H -2.009086 0.708339 8.738780
H -2.113666 -0.897506 8.011759
H -2.735305 0.546839 -1.454419
H -1.139144 1.302699 -1.451417
H -0.233731 -0.512770 -2.961555
H -1.791703 -1.351049 -2.927467
H -2.910106 0.678702 -3.953254
H -1.365512 1.525911 -3.976820
H -0.391715 -0.284800 -5.472193
H -1.932838 -1.138554 -5.444945
H -3.073955 0.885177 -6.476930
H -1.530730 1.740054 -6.504585
H -0.570904 -0.041904 -8.040114
H -2.113666 -0.897506 -8.011759
H -2.009086 0.708339 -8.738780