21

C -2.678495 1.476923 -0.000076
C -1.388926 0.724406 -0.000068
C -0.192956 1.425430 -0.000035
C 1.003062 0.685390 -0.000024
N 2.355692 1.068494 0.000091
H 2.706426 2.015095 0.000326
C 3.111014 -0.119032 -0.000597
N 2.328159 -1.221731 0.000401
C 0.999841 -0.750511 0.000050
C -0.226315 -1.445887 0.000081
C -1.404809 -0.717273 -0.000012
C -2.713500 -1.437523 0.000073
H -3.288413 1.233835 -0.883630
H -3.288395 1.233881 0.883503
H -2.539442 2.566807 -0.000106
H -0.164848 2.513354 -0.000032
H 4.196970 -0.117328 -0.000385
H -0.228082 -2.534560 0.000244
H -3.316797 -1.179752 0.883767
H -3.316802 -1.179938 -0.883671
H -2.601074 -2.530266 0.000189