30

C 3.039352 1.527806 -0.850902
Si 2.552256 -0.000016 0.107848
C 3.039567 -1.528265 -0.850115
C 3.405380 0.000467 1.771899
C 0.693022 -0.000098 0.433411
C -0.215076 0.000223 -0.799760
C -1.665451 0.000102 -0.386332
C -2.346506 1.211710 -0.187275
C -3.688518 1.209276 0.201220
C -4.363368 -0.000133 0.395909
C -3.688348 -1.209426 0.201078
C -2.346337 -1.211626 -0.187419
H 2.545289 1.551888 -1.833711
H 2.758655 2.444565 -0.311691
H 4.125857 1.558530 -1.020958
H 4.125890 -1.558147 -1.021478
H 2.760371 -2.444794 -0.309736
H 2.544322 -1.553689 -1.832295
H 3.135768 0.889237 2.361332
H 3.135014 -0.887472 2.362238
H 4.499086 -0.000060 1.650154
H 0.471575 -0.887162 1.071056
H 0.471563 0.886625 1.071523
H -0.003045 0.883134 -1.440195
H -0.003049 -0.882351 -1.440662
H -1.825935 2.156697 -0.334038
H -4.210578 2.153493 0.352788
H -5.408774 -0.000225 0.697284
H -4.210277 -2.153734 0.352534
H -1.825630 -2.156521 -0.334292