17

C 0.727023 1.489996 -0.062631
C 1.585062 0.467133 0.060145
C 1.275773 -0.984187 0.234987
C 0.002014 -1.451205 -0.476879
C -1.272678 -0.987758 0.235674
C -1.586502 0.462481 0.059927
C -0.731480 1.487847 -0.063013
H 1.147602 2.498858 -0.177443
H 2.660642 0.677154 0.047632
H 2.133190 -1.591340 -0.126772
H 1.206032 -1.205111 1.322940
H 0.001236 -1.087341 -1.522467
H 0.003555 -2.557129 -0.540121
H -2.128462 -1.597852 -0.124966
H -1.201378 -1.207658 1.323727
H -2.662702 0.669185 0.046789
H -1.154991 2.495390 -0.178583