49

C -3.464734 -2.370539 0.965836
C -3.461046 -1.022996 0.233903
O -2.392700 -1.054096 -0.703795
C -4.767722 -0.869308 -0.562499
C -3.154756 0.219450 1.169841
C -4.393127 1.041917 1.545787
C -2.379101 -0.155614 2.443265
O -2.328482 1.065876 0.380891
B -1.642614 0.245111 -0.662474
C -0.116315 -0.056902 -0.247274
C 0.472901 -1.279725 -0.569005
C 1.819468 -1.521975 -0.246102
C 2.413919 -2.849920 -0.609671
F 2.355721 -3.152542 -1.921309
F 3.712521 -3.042556 -0.315337
F 1.814511 -3.906529 -0.024957
C 2.582049 -0.545815 0.402236
C 1.979305 0.680078 0.728272
C 2.806569 1.722288 1.419640
F 3.739509 2.301097 0.637692
F 2.146481 2.775846 1.933708
F 3.522326 1.279792 2.472660
C 0.640897 0.927952 0.398231
C -1.709451 0.983145 -2.120366
C -0.992350 2.276557 -2.056654
C 0.081918 2.583886 -2.795985
C 0.806009 3.886137 -2.701616
H -2.484202 -2.601201 1.392710
H -4.198272 -2.380247 1.777664
H -3.713780 -3.188374 0.282221
H -5.649073 -0.924454 0.081326
H -4.791254 0.085368 -1.096643
H -4.854818 -1.659114 -1.314504
H -5.147244 0.422589 2.040599
H -4.131839 1.857874 2.227501
H -4.853526 1.500102 0.664625
H -1.466291 -0.707347 2.197684
H -2.069591 0.744289 2.983579
H -2.978140 -0.764449 3.124774
H -0.132542 -2.039273 -1.069087
H 3.628917 -0.725169 0.652346
H 0.159301 1.880995 0.629769
H -1.299719 0.285353 -2.861248
H -2.774914 1.119045 -2.350378
H -1.394611 2.983816 -1.328336
H 0.497201 1.886695 -3.520753
H 0.804524 4.412104 -3.666175
H 0.368886 4.567706 -1.961135
H 1.857284 3.736239 -2.420091