26

C 1.808321 -3.600057 0.000000
C 2.033402 -2.100462 0.000000
O 0.765202 -1.457623 0.000000
Si -0.454699 -0.521936 0.000000
H -1.547186 -1.413038 0.000000
O -0.657592 0.272881 1.303189
C -0.621136 1.129858 2.435257
C -0.621136 2.576640 1.980286
O -0.657592 0.272881 -1.303189
C -0.621136 1.129858 -2.435257
C -0.621136 2.576640 -1.980286
H 2.764890 -4.140232 0.000000
H 1.244142 -3.929969 0.882533
H 1.244142 -3.929969 -0.882533
H 2.556829 -1.745990 0.910929
H 2.556829 -1.745990 -0.910929
H -1.525535 0.866542 3.021532
H 0.295287 0.857247 2.996794
H -1.503703 2.813806 1.370560
H -0.625405 3.258032 2.842072
H 0.260815 2.820530 1.373623
H 0.295287 0.857247 -2.996794
H -1.525535 0.866542 -3.021532
H -1.503703 2.813806 -1.370560
H 0.260815 2.820530 -1.373623
H -0.625405 3.258032 -2.842072