19

C 2.662574 0.795991 0.818168
C 2.570466 -0.335884 -0.143812
C 1.439554 -0.853659 -0.638691
C 0.074919 -0.395856 -0.330043
C -0.314673 0.931753 -0.572667
C -1.621785 1.340403 -0.295654
C -2.548353 0.432103 0.225521
C -2.164365 -0.891304 0.467391
C -0.860980 -1.307856 0.188563
H 1.699023 1.050701 1.281617
H 3.365500 0.574529 1.634107
H 3.028735 1.706513 0.319585
H 3.538780 -0.751515 -0.441430
H 1.475444 -1.699574 -1.332427
H 0.405139 1.640692 -0.979001
H -1.918916 2.371387 -0.486479
H -3.565777 0.752995 0.441564
H -2.885275 -1.600620 0.873337
H -0.566788 -2.339255 0.376473