25

C 3.088687 -0.852369 0.083875
N 1.903901 -0.004267 -0.252467
C 0.653163 -0.582997 0.343924
C -0.519216 -0.367029 -0.645514
H -0.170670 -0.605181 -1.678587
N -1.626018 -1.310564 -0.249529
C -2.574981 -0.522411 0.603971
C -2.391150 0.972782 0.263644
C -1.114323 1.062418 -0.588548
C 2.128494 1.392106 0.231091
H 2.950775 -1.858194 -0.343316
H 3.989239 -0.421364 -0.382039
H 3.287513 -0.962863 1.160571
H 0.777915 -1.675651 0.510144
H 0.402109 -0.159609 1.337813
H -2.114710 -1.629093 -1.096041
H -3.617638 -0.859250 0.458298
H -2.318386 -0.716656 1.666176
H -3.263015 1.368705 -0.283280
H -2.306453 1.578931 1.180908
H -0.388603 1.785485 -0.166678
H -1.341304 1.426773 -1.604515
H 2.965019 1.838198 -0.328741
H 1.225875 1.999719 0.023847
H 2.353110 1.478868 1.304742