31

O 1.252167 -0.899352 2.358766
C 1.594098 -0.348691 1.319270
C 1.133253 0.816233 0.677581
C -0.078758 1.513234 1.210830
C -1.350692 0.884907 0.696385
C -1.736833 -0.390065 1.148221
C -2.910823 -0.978901 0.687932
C -3.717687 -0.289803 -0.237512
C -4.924820 -0.889069 -0.712566
N -5.903210 -1.375475 -1.097419
C -3.339842 0.984450 -0.695481
C -2.161183 1.564470 -0.227423
C 1.809546 1.360982 -0.429474
O 2.901009 0.615955 -0.949348
C 3.021191 -0.794525 -0.663810
C 2.056875 -1.573425 -1.536648
C 4.488524 -1.131707 -0.818353
O 2.702821 -1.012844 0.726665
O 1.674954 2.423151 -1.025770
H -0.077135 1.484134 2.323567
H -0.040208 2.593168 0.950098
H -1.100026 -0.918839 1.863296
H -3.206763 -1.968691 1.041440
H -3.966672 1.517173 -1.413598
H -1.871639 2.554147 -0.583240
H 2.267464 -1.420616 -2.603756
H 2.123849 -2.652956 -1.345663
H 1.013725 -1.278104 -1.366845
H 5.117150 -0.524562 -0.153147
H 4.684342 -2.186360 -0.580090
H 4.833680 -0.953998 -1.846338