35

C -4.816633 0.324619 0.636618
C -3.571980 -0.478550 0.451200
O -3.489709 -1.650927 0.809856
N -2.480627 0.125418 -0.204875
C -2.441148 1.573254 -0.554914
C -1.257574 2.252273 0.156428
N -0.000008 1.591459 -0.295824
C 1.257546 2.252287 0.156439
C 2.441135 1.573284 -0.554893
N 2.480625 0.125444 -0.204864
C 3.571975 -0.478537 0.451203
C 4.816642 0.324614 0.636625
O 3.489698 -1.650925 0.809819
C 1.221373 -0.554196 -0.348745
C 1.166049 -1.943742 -0.573049
N 0.000023 -2.626436 -0.688543
C -1.166016 -1.943760 -0.573059
C -1.221365 -0.554213 -0.348748
C 0.000000 0.181787 -0.276197
H -5.595902 -0.276735 1.135983
H -4.664337 1.217492 1.264554
H -5.253332 0.664066 -0.317121
H -2.339683 1.663839 -1.663791
H -3.388631 2.088154 -0.283919
H -1.212481 3.330637 -0.124551
H -1.381889 2.213756 1.262407
H 1.212442 3.330651 -0.124538
H 1.381852 2.213770 1.262420
H 2.339677 1.663874 -1.663770
H 3.388609 2.088197 -0.283890
H 4.664365 1.217475 1.264584
H 5.595908 -0.276762 1.135970
H 5.253337 0.664076 -0.317109
H 2.089412 -2.536778 -0.649652
H -2.089367 -2.536812 -0.649678