45

F -0.330315 -2.392450 -1.738079
C -1.486448 -1.868817 -1.343094
C -1.511316 -0.795513 -0.439512
Si 0.013769 -0.023909 0.307236
C 0.124063 1.799117 -0.079035
C -0.524840 2.397794 -1.171237
C -0.420149 3.772574 -1.452779
F -1.056202 4.293460 -2.498331
C 0.358170 4.593627 -0.625963
C 1.024688 4.029615 0.470786
F 1.769349 4.795546 1.263146
C 0.899842 2.652375 0.725399
F 1.555807 2.161447 1.772849
F 0.465011 5.890431 -0.879937
F -1.270855 1.666885 -1.994223
O -0.099182 -0.185687 1.907699
C -0.342968 -0.388113 3.190380
C 0.290469 0.023855 4.303559
C -0.449054 -0.533304 5.489572
C -1.609498 -1.333941 4.855234
O -1.473552 -1.188524 3.379805
C 1.587680 -0.869314 -0.229294
C 2.232714 -0.549572 -1.436134
C 3.422161 -1.177693 -1.846865
F 3.997780 -0.839817 -2.997305
C 4.001577 -2.164188 -1.036547
C 3.384080 -2.510505 0.172872
F 3.922117 -3.444520 0.952028
C 2.194792 -1.863682 0.555343
F 1.642155 -2.226915 1.708674
F 5.122065 -2.765040 -1.412344
F 1.720803 0.374860 -2.243606
C -2.785075 -0.317980 -0.078092
F -2.897049 0.697756 0.773737
C -3.974042 -0.869365 -0.585594
F -5.153996 -0.382036 -0.212614
C -3.910394 -1.940380 -1.488633
F -5.022744 -2.472107 -1.976123
C -2.659637 -2.442740 -1.869432
F -2.582763 -3.458517 -2.724825
H 1.164503 0.636080 4.394993
H 0.202042 -1.175950 6.111819
H -0.818201 0.269756 6.155043
H -1.560855 -2.418269 5.032349
H -2.609749 -0.937158 5.081468