23

O -3.992897 1.394373 -0.252770
C -3.027099 0.659200 -0.025896
N -1.718181 0.875284 0.090000
C -1.018050 -0.400652 0.371417
C -2.160121 -1.469797 0.441777
O -3.382669 -0.737917 0.179358
C 0.025435 -0.749157 -0.711445
C 1.407092 -0.281467 -0.348428
C 2.455836 -1.207462 -0.231778
C 3.745098 -0.773520 0.089378
C 3.999740 0.584954 0.298891
C 2.957089 1.510854 0.185999
C 1.667931 1.082128 -0.136722
H -0.507349 -0.323086 1.362226
H -2.096154 -2.252445 -0.326377
H -2.269985 -1.918657 1.438368
H 0.023160 -1.843713 -0.895120
H -0.271376 -0.300209 -1.682833
H 2.268671 -2.268405 -0.391860
H 4.554270 -1.498482 0.176571
H 5.004447 0.920896 0.548833
H 3.151734 2.570620 0.349768
H 0.856680 1.804358 -0.221443