45

C -2.474702 0.689824 4.041864
C -1.396803 0.020777 3.306490
O -1.272432 0.424923 1.954105
C -0.199005 -0.313735 1.416905
C 0.318810 -1.133464 2.381305
C -0.447066 -0.920818 3.591790
B 0.128676 -0.044265 -0.110466
C -1.000690 -0.675209 -1.026184
O -1.435618 -1.966165 -0.662140
C -2.415034 -2.340485 -1.613810
C -2.989909 -3.672546 -1.399243
C -2.582372 -1.330582 -2.520865
C -1.677420 -0.266333 -2.141821
C 0.272478 1.518729 -0.337281
O -0.701498 2.166060 -1.119390
C -0.349876 3.538062 -1.138915
C -1.263741 4.385116 -1.912298
C 0.789684 3.730132 -0.406973
C 1.187508 2.436064 0.104281
C 1.510623 -0.722623 -0.495146
O 2.624645 -0.373209 0.289113
C 3.727982 -1.077010 -0.250511
C 4.997605 -0.836208 0.443329
C 3.316856 -1.826511 -1.318666
C 1.896375 -1.597072 -1.475100
H -2.990454 1.445978 3.428385
H -3.241735 -0.024923 4.382989
H -2.097943 1.206112 4.940015
H 1.142469 -1.810552 2.290713
H -0.277554 -1.423726 4.522007
H -2.597838 -4.155032 -0.489703
H -4.086741 -3.632424 -1.295624
H -2.773970 -4.350639 -2.241457
H -3.247461 -1.303539 -3.359843
H -1.583149 0.672549 -2.651012
H -0.729558 4.969494 -2.679204
H -2.033840 3.795680 -2.435814
H -1.793545 5.108001 -1.270450
H 1.310381 4.648700 -0.228909
H 2.050415 2.254044 0.711076
H 5.412811 -1.764481 0.869074
H 5.762612 -0.424646 -0.235096
H 4.887490 -0.121775 1.275237
H 3.908182 -2.469084 -1.938440
H 1.287453 -2.047946 -2.230029