26

H 0.970820 -2.028060 0.000013
C 1.041386 -0.934972 0.000003
C 2.409464 -0.398926 0.000028
C 3.490358 -1.304653 0.000073
C 4.804942 -0.837383 0.000098
C 5.066774 0.536949 0.000081
C 4.001207 1.442353 0.000035
C 2.683384 0.981965 0.000007
N 0.011816 -0.117634 -0.000055
C -1.268656 -0.615088 -0.000103
H -1.504703 -1.672528 -0.000048
C -2.336736 0.305244 -0.000213
O -3.566147 -0.378809 -0.000052
C -4.776425 0.441051 0.000080
C -5.917074 -0.555639 0.000121
O -2.389804 1.539052 -0.000168
H 3.299759 -2.376585 0.000086
H 5.632090 -1.547006 0.000131
H 6.092750 0.898183 0.000102
H 4.200024 2.513920 0.000021
H 1.859051 1.693475 -0.000031
H -4.755854 1.076376 0.901422
H -4.755996 1.076457 -0.901207
H -5.888664 -1.208004 -0.881827
H -5.888540 -1.208081 0.882008
H -6.887583 -0.042061 0.000213