39

N 1.158093 -0.186974 3.500349
N 0.557702 -0.322808 2.543150
N -0.251866 -0.600305 1.644091
C -0.102551 -0.215132 0.204179
C -0.636526 1.199597 -0.065404
C -1.349064 1.930492 0.892472
C -1.830631 3.208986 0.587775
C -1.611408 3.762688 -0.675312
C -0.907394 3.031940 -1.639170
C -0.422588 1.758404 -1.337636
C 1.374223 -0.273295 -0.202540
C 2.220223 0.775096 0.209677
C 3.575700 0.764713 -0.115855
C 4.110166 -0.292211 -0.863342
C 3.277047 -1.330323 -1.280883
C 1.914867 -1.321917 -0.952651
C -1.031101 -1.211076 -0.582224
H -0.809437 -1.056094 -1.672362
N -0.773358 -2.664037 -0.298732
C -2.077392 -3.371579 -0.528768
C -3.217272 -2.340855 -0.394668
C -2.542179 -0.961557 -0.334101
H -1.547231 1.516151 1.881415
H -2.381000 3.771725 1.342450
H -1.987209 4.758209 -0.910630
H -0.736636 3.457772 -2.628383
H 0.128888 1.199804 -2.095675
H 1.816936 1.614724 0.778837
H 4.219961 1.581962 0.210288
H 5.170285 -0.300720 -1.117455
H 3.683943 -2.155685 -1.866237
H 1.291745 -2.150680 -1.296544
H -0.488132 -2.789396 0.681886
H -2.053963 -3.799880 -1.552921
H -2.196839 -4.219470 0.171200
H -3.915835 -2.410755 -1.245769
H -3.820588 -2.527153 0.510088
H -2.718779 -0.484671 0.646141
H -2.954828 -0.270806 -1.087622