28

O -1.027307 -1.409561 -1.709993
S -1.354837 -1.348344 -0.251596
C -0.055383 -1.318406 0.720971
H -0.184513 -1.772495 1.705226
C 1.201395 -0.776338 0.458051
C 2.211540 -0.777782 1.479758
C 3.454726 -0.226097 1.264184
C 3.775584 0.358457 0.015371
C 5.050648 0.930112 -0.202463
N 6.098774 1.398981 -0.381128
C 2.803807 0.357548 -1.011687
C 1.557769 -0.193865 -0.800845
C -2.267020 0.121439 -0.036141
C -1.631827 1.362456 -0.130876
C -2.367435 2.541135 0.027741
C -3.741662 2.476699 0.283470
C -4.378269 1.235408 0.381582
C -3.638491 0.058954 0.220781
O -2.274332 -2.475605 0.103912
H 1.973051 -1.224703 2.441355
H 4.205877 -0.232666 2.056656
H 3.052252 0.798275 -1.979654
H 0.831567 -0.206865 -1.615171
H -0.556961 1.425778 -0.326008
H -1.870627 3.508059 -0.047607
H -4.316472 3.396204 0.406436
H -5.448038 1.183546 0.581915
H -4.139339 -0.911499 0.299553