30

O -1.429508 1.229231 1.589697
C -1.600228 1.448262 0.370832
O -1.824764 2.593278 -0.099889
C -1.590679 0.292662 -0.671238
H -1.454661 0.750604 -1.682769
C -2.922165 -0.483618 -0.592424
C -2.610582 -1.828105 0.088964
C -1.083831 -1.892740 0.272731
N -0.522920 -0.737077 -0.505184
C 0.820090 -0.321380 -0.247932
C 1.264821 0.910622 -0.579478
C 2.701027 1.324768 -0.482027
C 3.547535 0.372008 0.374933
C 3.219120 -1.086064 0.038626
C 1.737123 -1.393331 0.296386
H -3.692137 0.078080 -0.037096
H -3.334602 -0.642316 -1.604598
H -3.126421 -1.912421 1.060980
H -2.973761 -2.672405 -0.522322
H -0.811237 -1.862529 1.346374
H -0.662517 -2.829904 -0.146742
H 0.605104 1.682179 -0.962032
H 3.127491 1.386544 -1.505678
H 2.768648 2.352201 -0.070757
H 4.623466 0.569789 0.215636
H 3.360872 0.561433 1.448969
H 3.464793 -1.290250 -1.021505
H 3.850634 -1.770673 0.635604
H 1.560345 -1.495177 1.388186
H 1.495208 -2.384205 -0.140669