15

C -2.786254 0.323623 0.000076
O -1.732517 -0.679119 0.000115
C -0.435816 -0.250082 0.000034
C 0.507192 -1.301594 0.000107
C 1.858780 -0.960083 0.000032
N 2.302332 0.333447 -0.000108
C 1.371285 1.324860 -0.000176
C -0.010046 1.085830 -0.000110
H -2.730371 0.933220 0.906958
H -2.730457 0.933056 -0.906921
H -3.690321 -0.300125 0.000177
H 0.176964 -2.337598 0.000219
H 2.637465 -1.734211 0.000082
H 1.759346 2.352500 -0.000287
H -0.709663 1.916651 -0.000172