22

N -1.280444 1.117862 -1.290945
C -1.404152 -0.085769 -0.426499
C -0.501071 -0.078700 0.826060
C 0.955440 -0.084007 0.457969
C 1.687554 1.113431 0.450725
C 3.041002 1.106513 0.102015
C 3.673258 -0.092065 -0.242071
C 2.946017 -1.287072 -0.236925
C 1.593079 -1.285861 0.110865
C -2.886351 -0.200235 0.027604
O -3.468302 -1.286953 -0.204442
O -3.425948 0.774911 0.597543
H -1.584054 1.946896 -0.778089
H -0.299230 1.276042 -1.526578
H -1.149384 -0.977910 -1.054151
H -0.745894 0.797441 1.461175
H -0.738757 -0.961359 1.457032
H 1.204001 2.051745 0.719706
H 3.604415 2.039867 0.098740
H 4.727971 -0.095605 -0.512849
H 3.436519 -2.223191 -0.504600
H 1.032863 -2.220028 0.112952