15

O 3.111078 -1.155246 0.000011
N 2.258251 -0.235617 0.000031
C 0.937106 -0.568740 -0.000092
H 0.686618 -1.633196 -0.000182
C -0.163316 0.340313 -0.000104
O -1.342681 -0.391499 -0.000086
C -2.603208 0.364339 -0.000013
C -3.671003 -0.707218 0.000076
O -0.228202 1.563332 -0.000062
O 2.661379 0.944890 0.000199
H -2.615700 0.997191 0.903390
H -2.615817 0.997164 -0.903432
H -3.598932 -1.357174 -0.882211
H -3.598810 -1.357148 0.882373
H -4.675188 -0.261508 0.000140