21

N 5.973240 -0.870061 -0.078406
C 4.865290 -0.526074 -0.035155
C 3.511910 -0.105088 0.017663
C 3.115342 0.912553 0.914625
C 1.797087 1.321321 0.966185
C 0.803125 0.733287 0.124296
C -0.533812 1.173241 0.214554
H -0.699751 1.988581 0.929197
S -1.797309 0.641471 -0.585104
O -1.568376 -0.108788 -1.828701
C -2.522587 -0.713107 0.500415
F -2.986332 -0.282860 1.679852
F -3.560207 -1.356751 -0.049045
F -1.659665 -1.686156 0.816936
O -2.939926 1.565159 -0.661976
C 1.226082 -0.287419 -0.774597
C 2.546737 -0.696283 -0.825076
H 3.860425 1.372505 1.567228
H 1.499099 2.104850 1.660106
H 0.501235 -0.751392 -1.446377
H 2.850471 -1.481316 -1.521380