38

O -0.337105 -0.599643 1.748428
C -0.077977 -0.208686 0.381130
C -0.732808 1.138831 0.090329
C -1.568606 1.739376 1.041126
C -2.171603 2.970923 0.769505
C -1.948359 3.606813 -0.455283
C -1.120353 3.006063 -1.409288
C -0.513721 1.776518 -1.139387
C 1.429929 -0.103158 0.166592
C 2.239252 0.385916 1.203889
C 3.617816 0.516428 1.024867
C 4.201959 0.165566 -0.196878
C 3.400432 -0.317520 -1.234789
C 2.019987 -0.451736 -1.055292
C -0.761392 -1.339736 -0.446737
H -0.537483 -1.164120 -1.531128
N -0.211492 -2.692913 -0.095950
C -1.343297 -3.664278 -0.267643
C -2.671506 -2.881635 -0.202314
C -2.295679 -1.391785 -0.237502
H 0.132371 -0.005726 2.382993
H -1.755593 1.241419 1.994600
H -2.818455 3.433954 1.514880
H -2.418504 4.566904 -0.666769
H -0.946733 3.497513 -2.366890
H 0.131431 1.319573 -1.890384
H 1.791368 0.665834 2.160318
H 4.237981 0.894099 1.838359
H 5.277653 0.269234 -0.338096
H 3.850692 -0.591021 -2.189599
H 1.408474 -0.836277 -1.873801
H 0.088761 -2.688105 0.890584
H -1.223264 -4.149741 -1.258966
H -1.295961 -4.467629 0.490922
H -3.330389 -3.150591 -1.045341
H -3.234847 -3.126827 0.714025
H -2.581842 -0.893545 0.706867
H -2.822791 -0.854817 -1.042304