12

N 1.387978 1.139625 -0.339921
C 0.619630 -0.137211 -0.426524
C 1.254420 -1.213368 0.452798
C -0.872277 0.033259 -0.027632
O -1.680320 -0.858522 -0.378372
O -1.203692 1.063198 0.608260
H 0.788531 1.915423 -0.627679
H 1.632733 1.334662 0.630530
H 0.650904 -0.460213 -1.499840
H 1.195229 -0.966672 1.519781
H 0.761901 -2.182813 0.312506
H 2.316321 -1.351241 0.213194