32

O -0.675841 -2.564566 -0.382882
C -0.880137 -1.362110 -0.213435
C 0.014165 -0.259660 -0.265676
C -0.486968 1.060341 -0.489908
O 0.269801 2.023550 0.172855
C -0.097709 3.427171 0.024211
C -1.131761 3.794140 1.069291
O -1.430163 1.444616 -1.176506
C 1.440085 -0.493067 -0.087519
C 2.392810 0.337375 -0.719958
C 3.757228 0.103371 -0.561334
C 4.209476 -0.961512 0.225857
C 3.277141 -1.790554 0.856759
C 1.909591 -1.562232 0.706069
O -2.183680 -0.978457 0.102951
C -3.208568 -2.026071 0.122192
C -4.517952 -1.274417 0.236728
H -0.452061 3.604534 -1.005846
H 0.874921 3.927013 0.186198
H -2.075909 3.258194 0.911823
H -1.355869 4.868651 1.046427
H -0.790917 3.552504 2.083708
H 2.054966 1.174938 -1.326191
H 4.478189 0.753976 -1.056186
H 5.274049 -1.141480 0.345280
H 3.620793 -2.621220 1.473073
H 1.195593 -2.219258 1.197628
H -3.000080 -2.669163 0.993533
H -3.122893 -2.615323 -0.806223
H -4.542979 -0.632154 1.126769
H -5.364173 -1.971145 0.309936
H -4.698976 -0.627863 -0.630923