44

C -0.859176 5.131734 1.527439
Si 0.177234 4.836702 0.000000
C -0.859176 5.131734 -1.527439
C 1.639113 6.004782 0.000000
C 0.859176 3.079333 0.000000
C -0.171331 1.948266 0.000000
C 0.513587 0.569810 0.000000
C -0.513587 -0.569810 0.000000
C 0.171331 -1.948266 0.000000
C -0.859176 -3.079333 0.000000
Si -0.177234 -4.836702 0.000000
C 0.859176 -5.131734 1.527439
C -1.639113 -6.004782 0.000000
C 0.859176 -5.131734 -1.527439
H -1.720990 4.448267 1.554896
H -0.273524 4.969887 2.444182
H -1.245518 6.161093 1.552746
H -1.245518 6.161093 -1.552746
H -0.273524 4.969887 -2.444182
H -1.720990 4.448267 -1.554896
H 2.270172 5.855971 0.888375
H 2.270172 5.855971 -0.888375
H 1.303128 7.052389 0.000000
H 1.528514 2.989586 -0.886380
H 1.528514 2.989586 0.886380
H -0.835808 2.027453 0.884108
H -0.835808 2.027453 -0.884108
H 1.176752 0.480630 -0.881199
H 1.176752 0.480630 0.881199
H -1.176752 -0.480630 0.881199
H -1.176752 -0.480630 -0.881199
H 0.835808 -2.027453 -0.884108
H 0.835808 -2.027453 0.884108
H -1.528514 -2.989586 0.886380
H -1.528514 -2.989586 -0.886380
H 0.273524 -4.969887 2.444182
H 1.245518 -6.161093 1.552746
H 1.720990 -4.448267 1.554896
H -2.270172 -5.855971 -0.888375
H -1.303128 -7.052389 0.000000
H -2.270172 -5.855971 0.888375
H 1.720990 -4.448267 -1.554896
H 1.245518 -6.161093 -1.552746
H 0.273524 -4.969887 -2.444182