17

C -2.613072 1.170149 0.000021
N -1.551493 0.157565 -0.000028
N -1.797112 -1.185958 -0.000051
N -0.685061 -1.863985 -0.000116
C 0.396877 -0.958631 -0.000032
C 1.798955 -1.141592 -0.000010
C 2.584882 -0.010242 0.000049
C 2.021124 1.303833 0.000082
C 0.659829 1.516768 0.000060
C -0.163822 0.368563 0.000003
H -2.540093 1.814215 0.898536
H -2.539571 1.814849 -0.897995
H -3.616172 0.700876 -0.000438
H 2.220275 -2.146203 -0.000048
H 3.673498 -0.100376 0.000063
H 2.705870 2.155988 0.000127
H 0.223219 2.514203 0.000089