28

H 0.000000 -2.697590 0.035166
C 0.000000 -1.701481 0.530483
H 0.000000 -1.926502 1.623902
C 1.247686 -0.942047 0.185414
C 1.222959 0.476593 0.110292
C 2.408335 1.172273 -0.190749
C 3.597632 0.470267 -0.401812
C 3.622170 -0.923017 -0.329597
C 2.445533 -1.622727 -0.039845
N 0.000000 1.156662 0.414519
C 0.000000 2.640369 0.333191
C -1.222959 0.476593 0.110292
C -2.408335 1.172273 -0.190750
C -3.597632 0.470267 -0.401812
C -3.622170 -0.923017 -0.329597
C -2.445533 -1.622727 -0.039844
C -1.247686 -0.942047 0.185415
H 2.417440 2.258939 -0.264931
H 4.511396 1.020956 -0.629273
H 4.550301 -1.465730 -0.498272
H 2.467352 -2.712456 0.014255
H 0.000000 3.021501 -0.701819
H -0.884984 3.046548 0.855540
H 0.884983 3.046548 0.855541
H -2.417440 2.258939 -0.264934
H -4.511396 1.020956 -0.629275
H -4.550301 -1.465730 -0.498271
H -2.467353 -2.712456 0.014257