17

C -1.873897 -1.002657 0.371874
C -0.654429 -0.565296 -0.416227
H -0.567218 -1.103800 -1.384369
O -0.817181 0.824317 -0.820571
C 0.001214 1.673478 -0.000166
O 0.817481 0.823275 0.821224
C 0.653816 -0.566009 0.416167
H 0.566192 -1.104879 1.384068
C 1.872949 -1.003937 -0.372142
H -2.795670 -0.830837 -0.200897
H -1.836378 -2.071822 0.616175
H -1.981286 -0.449852 1.313694
H 0.640197 2.260784 -0.675778
H -0.636402 2.263009 0.674789
H 2.794843 -0.833182 0.200756
H 1.834570 -2.072935 -0.617037
H 1.980827 -0.450702 -1.313655