32

N -1.874793 3.107712 -0.613895
C -2.027861 1.718470 -0.484049
N -0.853979 0.972053 -0.561518
C -1.062708 -0.356089 -0.298283
N -0.125834 -1.408065 -0.308406
C -0.871300 -2.594525 0.035109
N -2.166816 -2.335170 0.213462
C -2.324668 -0.953589 0.010517
C -3.506594 -0.110480 0.048736
O -4.657924 -0.498608 0.283567
N -3.291042 1.253699 -0.221732
C 1.333583 -1.355185 -0.472122
H 1.715085 -2.359052 -0.789847
O 1.925332 -1.143424 0.823780
C 2.401980 0.222752 0.981903
H 3.422156 0.092266 1.415258
C 1.469672 0.958412 1.950438
O 1.731926 0.531372 3.293062
C 2.448210 0.849438 -0.427152
H 1.958730 1.842120 -0.498160
O 3.841590 0.953945 -0.749969
C 1.814781 -0.195466 -1.391287
H 1.013080 0.224359 -2.039311
O 2.772160 -0.701643 -2.304870
H -1.045275 3.431515 -1.104941
H -2.707546 3.634381 -0.864406
H -0.385200 -3.559063 0.111727
H 1.678111 2.046198 1.982275
H 0.403592 0.787656 1.710828
H 1.518906 -0.427192 3.387931
H 3.975092 1.626953 -1.465652
H 3.685283 -0.707317 -1.888497