14

C 1.489356 0.000001 0.000079
C 0.668153 -1.256447 -0.000069
C -0.668152 -1.256448 -0.000096
C -1.489356 -0.000001 0.000019
C -0.668153 1.256447 0.000010
C 0.668152 1.256448 0.000037
H 2.166615 -0.000036 0.883776
H 2.166833 0.000039 -0.883450
H 1.244609 -2.180923 -0.000154
H -1.244606 -2.180925 -0.000204
H -2.166798 0.000036 -0.883536
H -2.166650 -0.000038 0.883689
H -1.244609 2.180923 -0.000021
H 1.244606 2.180925 0.000029