10

C 2.176751 -0.463920 0.000000
C 0.683098 -0.501225 0.000000
C 0.000000 0.787895 0.000000
N -1.301287 0.900003 0.000000
N -2.422671 0.995425 0.000000
O 0.065153 -1.559323 0.000000
H 2.605830 0.546741 0.000000
H 2.583880 -0.987402 0.880643
H 2.583880 -0.987402 -0.880643
H 0.613802 1.698146 0.000000