23

C 3.879524 -1.817899 -0.002091
C 2.577621 -1.079856 -0.005028
O 1.488482 -1.635331 -0.010982
N 2.707661 0.321106 0.001698
C 1.647856 1.284194 0.003129
C 1.934337 2.593543 0.005779
C 0.244887 0.792527 0.002190
C -0.418268 0.576501 1.220255
C -1.746703 0.143327 1.224646
C -2.385897 -0.062434 0.000654
Cl -4.020223 -0.632878 -0.000555
C -1.751226 0.161649 -1.222448
C -0.422801 0.594919 -1.216486
H 4.501418 -1.589560 -0.883030
H 4.494152 -1.595360 0.885418
H 3.717254 -2.908125 -0.006331
H 3.658309 0.719091 0.005797
H 1.171138 3.357662 0.007260
H 2.932418 3.003974 0.006657
H 0.103217 0.741451 2.164883
H -2.269371 -0.030251 2.166390
H -2.277336 0.002034 -2.164749
H 0.095134 0.774085 -2.160481