22

C 3.676302 -0.734430 -0.000005
C 2.264997 -0.242869 -0.000004
C 2.036223 1.164413 0.000031
C 0.757881 1.692711 0.000040
C -0.318680 0.788162 0.000014
C -0.111976 -0.634861 -0.000022
C -1.409516 -1.250614 -0.000044
C -2.360352 -0.236023 -0.000016
C -3.833658 -0.321094 0.000005
N -1.710479 1.014428 0.000015
C 1.201709 -1.137627 -0.000031
H 4.226923 -0.378827 0.883172
H 3.748684 -1.830199 -0.000195
H 4.227045 -0.378513 -0.882977
H 2.896955 1.832488 0.000052
H 0.583035 2.766264 0.000067
H -1.596310 -2.303453 -0.000075
H -4.279017 0.162088 0.885161
H -4.279141 0.163120 -0.884521
H -4.183185 -1.365735 -0.000579
H -2.155946 1.917144 0.000042
H 1.366727 -2.211984 -0.000059