24

C 4.840559 1.614024 -0.088699
S 4.182496 -0.043676 0.032649
C 4.754803 -0.487767 1.667371
C 2.545486 0.140435 0.185746
C 1.708092 -0.513364 -0.723766
O 2.080100 -1.217293 -1.675194
C 0.219221 -0.340410 -0.505901
C -0.384483 0.897612 -0.756188
C -1.754877 1.066129 -0.533293
C -2.497368 -0.015062 -0.054507
Br -4.359388 0.233712 0.325963
C -1.914963 -1.260769 0.184296
C -0.544307 -1.419888 -0.046903
H 5.940951 1.602957 -0.087982
H 4.529363 2.079642 -1.036973
H 4.524036 2.293897 0.713402
H 4.436106 0.193707 2.467380
H 4.386296 -1.488918 1.941856
H 5.853683 -0.534684 1.701969
H 2.105080 0.747127 0.967166
H 0.212932 1.735724 -1.120522
H -2.223233 2.032543 -0.728496
H -2.507149 -2.102824 0.547252
H -0.073212 -2.387556 0.136452