15

C 2.109251 0.000000 -0.463055
Si 0.510592 0.000000 0.473154
H 0.818087 0.000000 1.905700
C -0.799770 1.242054 -0.021124
C -1.685547 0.000000 -0.349755
C -0.799771 -1.242054 -0.021124
H 2.715093 0.888731 -0.216348
H 2.715095 -0.888729 -0.216346
H 1.960420 -0.000001 -1.553639
H -1.224691 1.886640 0.763205
H -0.620120 1.891224 -0.889263
H -2.614597 0.000000 0.248707
H -1.997740 0.000000 -1.409775
H -0.620120 -1.891224 -0.889263
H -1.224691 -1.886640 0.763205