19

C 2.489503 0.483689 -0.301765
C 2.311126 -0.975501 0.156396
N 0.920119 -1.476568 0.087267
C -0.035557 -0.616243 -0.021365
S -1.742821 -1.117650 -0.019104
C -2.389357 0.593277 -0.075278
C -1.195334 1.517532 0.159668
N 0.046040 0.787574 -0.245615
C 1.346321 1.389568 0.186662
H 3.457615 0.881480 0.059306
H 2.545073 0.520923 -1.409150
H 2.935254 -1.651877 -0.471189
H 2.664981 -1.103265 1.205644
H -2.868986 0.769716 -1.057244
H -3.172906 0.716065 0.695875
H -1.269116 2.433856 -0.471198
H -1.154150 1.859438 1.218979
H 1.396260 1.525448 1.289254
H 1.427780 2.399643 -0.272094