43

C -4.595586 -0.733304 2.162027
C -3.221066 -1.349577 1.916832
C -2.791975 -1.202697 0.452535
C -1.403495 -1.797476 0.222751
O -1.163292 -1.842565 -1.204615
P -0.066731 -0.819251 -1.966616
O -0.844778 0.638411 -2.214415
C -1.296436 1.520724 -1.162353
C -0.131786 2.270075 -0.519370
C -0.639849 3.438618 0.334509
C 0.511354 4.194042 0.992928
O 0.963738 -0.420136 -0.674911
C 2.192939 -1.203150 -0.622796
C 2.977463 -0.530380 0.505577
C 4.307385 -1.249851 0.758220
C 5.098242 -0.583420 1.880319
H -4.898729 -0.843029 3.209983
H -4.609411 0.338000 1.929177
H -5.369511 -1.208194 1.547427
H -2.473039 -0.872559 2.581117
H -3.235150 -2.421040 2.201145
H -3.524362 -1.693643 -0.217932
H -2.801739 -0.127488 0.156304
H -0.610459 -1.250491 0.764379
H -1.359188 -2.868696 0.505736
H -1.960959 2.200384 -1.736109
H -1.912672 0.964188 -0.423192
H 0.483443 1.582441 0.100114
H 0.556209 2.638788 -1.305702
H -1.234455 4.134901 -0.290236
H -1.335313 3.064776 1.112217
H 0.142566 5.028367 1.601110
H 1.099636 3.545089 1.652169
H 1.200768 4.612060 0.249987
H 1.947643 -2.254698 -0.383302
H 2.731003 -1.146045 -1.586402
H 3.151425 0.535142 0.255778
H 2.362450 -0.512708 1.427127
H 4.121461 -2.313080 1.011157
H 4.913188 -1.264862 -0.169919
H 5.336121 0.461087 1.646762
H 4.543715 -0.585335 2.826163
H 6.047833 -1.101893 2.058629