11

C 0.998216 -0.737446 -0.000029
C -0.280090 -1.181537 -0.000018
C -1.226537 0.000000 0.000017
C -0.280090 1.181537 -0.000033
C 0.998216 0.737445 0.000046
H 1.903084 -1.317854 -0.000019
H -0.642547 -2.191941 -0.000010
H -1.889708 -0.000003 -0.885536
H -1.889656 0.000004 0.885612
H -0.642547 2.191942 -0.000027
H 1.903085 1.317854 0.000081