37

C -0.357930 1.295171 2.098843
C -0.520899 0.827423 0.858477
Si 0.881524 0.863742 -0.434518
C 1.684191 2.567492 -0.344317
Si 2.242333 -0.710756 0.033693
C 1.351238 -2.373218 -0.029164
C 3.674418 -0.755272 -1.192196
C 2.951871 -0.475788 1.765450
C 0.099886 0.660514 -2.137348
C -1.807882 0.232099 0.437617
C -1.982299 -1.163040 0.431789
C -3.200446 -1.716881 0.033433
C -4.255781 -0.888952 -0.363462
C -4.086503 0.499549 -0.361726
C -2.871553 1.060864 0.037081
H -1.132514 1.265226 2.855636
H 0.558878 1.743061 2.463810
H 2.156492 2.746842 0.632773
H 2.464845 2.673312 -1.112949
H 0.950150 3.367972 -0.507169
H 1.092889 -2.645293 -1.063039
H 1.980798 -3.175159 0.377905
H 0.412949 -2.356958 0.554534
H 4.251692 0.180670 -1.166891
H 4.365220 -1.576790 -0.959406
H 3.319469 -0.902110 -2.222624
H 2.160850 -0.486759 2.529650
H 3.661295 -1.277301 2.010814
H 3.488746 0.480101 1.853221
H -0.648180 1.441143 -2.331415
H 0.856643 0.719538 -2.933383
H -0.408717 -0.311298 -2.232035
H -1.153961 -1.814304 0.731216
H -3.328518 -2.798820 0.031609
H -5.203886 -1.322940 -0.672665
H -4.906322 1.146651 -0.671490
H -2.742691 2.141647 0.036588