21

C 2.382082 0.303362 -1.542006
Si 1.640809 -0.427304 -0.000659
H 1.888323 -1.875373 -0.002956
C 2.382022 0.298458 1.543028
C -0.216796 -0.174773 -0.000287
C -1.097497 -1.267711 -0.001521
C -2.483573 -1.067663 -0.001223
C -3.003865 0.229221 0.000322
C -2.136313 1.326243 0.001574
C -0.751890 1.124668 0.001277
H 3.467500 0.115109 -1.587106
H 1.934286 -0.137426 -2.448134
H 2.239292 1.392352 -1.606058
H 2.239109 1.387220 1.610585
H 1.934306 -0.145298 2.447743
H 3.467463 0.110182 1.587492
H -0.716395 -2.291962 -0.002733
H -3.155993 -1.923948 -0.002194
H -4.081666 0.385735 0.000550
H -2.538991 2.337747 0.002775
H -0.093578 1.997101 0.002271