17

H 0.000000 -1.546345 -1.226731
N 0.000000 -1.484399 -0.198458
C 1.231813 -0.757012 0.236164
C 1.267497 0.710482 -0.226314
C 0.000000 1.454770 0.215416
C -1.267497 0.710482 -0.226313
C -1.231813 -0.757012 0.236164
H 1.291328 -0.806485 1.345013
H 2.114210 -1.306761 -0.154398
H 2.165116 1.211731 0.180981
H 1.369412 0.758179 -1.327151
H 0.000000 1.573494 1.316335
H 0.000000 2.480058 -0.199990
H -2.165116 1.211731 0.180981
H -1.369412 0.758179 -1.327151
H -2.114211 -1.306760 -0.154399
H -1.291329 -0.806485 1.345013