20

C -0.253766 -0.126097 2.853147
C -0.253766 -0.859618 1.515521
Si -0.190389 0.256008 0.000000
H -1.385407 1.110421 0.000000
C 1.314949 1.352228 0.000000
C -0.253766 -0.859618 -1.515521
C -0.253766 -0.126097 -2.853147
H -0.325477 -0.836398 3.687623
H 0.663905 0.456968 3.008040
H -1.101227 0.565576 2.950839
H 0.598604 -1.574331 1.475598
H -1.166656 -1.495432 1.430764
H 1.329502 2.003549 0.888725
H 2.254229 0.780811 0.000000
H 1.329502 2.003549 -0.888725
H 0.598604 -1.574331 -1.475598
H -1.166656 -1.495432 -1.430764
H -0.325477 -0.836398 -3.687623
H -1.101227 0.565576 -2.950839
H 0.663905 0.456968 -3.008040