19

O 3.062468 1.437599 -0.000118
C 2.573146 0.316711 0.000089
O 3.305337 -0.848279 0.000030
O 4.632061 -0.640099 -0.000084
C 1.123056 0.001790 0.000041
C 0.202449 1.065225 0.000023
C -1.158985 0.790933 0.000005
Cl -2.301017 2.069718 -0.000004
C -1.619247 -0.549321 0.000004
O -2.978369 -0.665308 -0.000005
C -3.551894 -2.004748 0.000009
C -0.700745 -1.609545 0.000019
C 0.663459 -1.325993 0.000035
H 0.562821 2.099008 0.000025
H -3.260957 -2.542221 -0.907793
H -3.260966 -2.542199 0.907828
H -4.628438 -1.784895 0.000002
H -1.039100 -2.645698 0.000018
H 1.384517 -2.150813 0.000052