30

F 0.556854 -1.511284 -1.544896
C 0.044200 -1.242781 -0.322994
S -1.582811 -1.362929 -0.301230
O -2.056609 -2.175699 0.855253
C -2.291502 0.208417 -0.109762
C -3.131005 0.716606 -1.105817
C -3.722839 1.974020 -0.953192
C -3.474786 2.724819 0.201166
C -2.634971 2.218804 1.198611
C -2.043377 0.961359 1.041415
O -2.082404 -1.922090 -1.589699
S 1.183753 -0.953229 0.804413
O 1.971629 -2.159658 1.174115
C 2.311377 0.206252 0.184263
C 2.073491 1.572093 0.365209
C 2.975684 2.513779 -0.139311
C 4.117764 2.086884 -0.825355
C 4.359717 0.720457 -1.003402
C 3.456173 -0.218715 -0.496556
O 0.528553 -0.366219 2.013213
H -3.329088 0.130557 -2.009188
H -4.375752 2.367322 -1.731502
H -3.936393 3.706177 0.322916
H -2.439579 2.802958 2.097415
H -1.374977 0.577498 1.826462
H 1.184156 1.912425 0.905308
H 2.788113 3.578038 0.001932
H 4.822061 2.821106 -1.220995
H 5.250623 0.387521 -1.535470
H 3.655177 -1.286152 -0.632452