32

C -4.626151 -0.753248 -0.620251
C -3.786962 0.235991 0.194502
C -3.624225 -0.244726 1.638857
C -2.420180 0.498679 -0.505976
H -2.614324 0.691157 -1.597187
C -1.731986 1.747223 0.103011
C -0.291647 1.934944 -0.397335
N 0.451102 0.652723 -0.278345
C -0.292160 -0.562784 -0.314924
N -1.563510 -0.712873 -0.431397
S 0.850656 -1.932653 -0.156378
C 2.230580 -0.859587 0.008420
C 3.555555 -1.218340 0.192600
C 4.510573 -0.197612 0.295521
C 4.129441 1.148204 0.212461
C 2.794641 1.520644 0.025565
C 1.836348 0.503246 -0.075517
H -5.604206 -0.920909 -0.156067
H -4.802635 -0.395319 -1.639950
H -4.132386 -1.729411 -0.698054
H -4.329461 1.217196 0.211833
H -3.134757 -1.225353 1.683772
H -3.015657 0.448615 2.230298
H -4.594982 -0.342628 2.136484
H -2.320183 2.655532 -0.133124
H -1.737257 1.670931 1.210827
H -0.281145 2.254637 -1.465622
H 0.222008 2.727793 0.191026
H 3.854192 -2.265835 0.257372
H 5.558839 -0.454415 0.441716
H 4.891384 1.926887 0.294736
H 2.513974 2.568817 -0.039418