12

O -2.377182 -1.268380 0.000030
C -1.238475 -0.792728 -0.000058
C 0.000000 -1.452995 -0.000044
H 0.000000 -2.536207 -0.000009
C 1.238475 -0.792728 -0.000070
N 1.196555 0.660703 -0.000012
C 0.000000 1.400389 0.000032
N -1.196555 0.660703 -0.000002
O 0.000000 2.630694 0.000073
O 2.377182 -1.268380 0.000011
H 2.081742 1.181636 0.000011
H -2.081742 1.181635 0.000029