20

C 1.255436 -0.450147 1.342767
C 0.651503 0.001035 0.003550
C 1.771298 0.314444 -0.998896
N -0.219574 -1.120605 -0.518347
C -1.630344 -0.800588 -0.128610
C -1.729035 0.724298 0.086112
C -0.284896 1.233787 0.207177
H 1.875972 0.335084 1.785998
H 0.473263 -0.706969 2.065967
H 1.884934 -1.337737 1.220447
H 2.402295 -0.561412 -1.189354
H 1.382464 0.653083 -1.965618
H 2.428575 1.106379 -0.621386
H -0.152835 -1.172552 -1.542587
H -2.347881 -1.162902 -0.887516
H -1.855488 -1.343118 0.813222
H -2.250994 1.210793 -0.755229
H -2.317773 0.961048 0.987878
H -0.108944 1.709082 1.185676
H -0.080340 2.016472 -0.541669