11

N 0.000000 -1.426946 -0.000209
C 1.165583 -0.725101 -0.000057
C 1.206246 0.678126 0.000148
C 0.000000 1.384838 0.000203
C -1.206246 0.678126 0.000050
C -1.165583 -0.725101 -0.000155
H 2.088066 -1.318558 -0.000108
H 2.160531 1.202066 0.000263
H 0.000000 2.476282 0.000361
H -2.160532 1.202064 0.000089
H -2.088065 -1.318559 -0.000277