19

C -2.900760 -1.098583 -0.000001
C -1.631468 -0.315086 -0.000002
C -0.395368 -0.965413 -0.000002
C 0.779955 -0.188499 0.000000
O 1.922065 -0.958752 -0.000001
C 3.203984 -0.279193 -0.000004
C 0.747985 1.210089 0.000004
C -0.503459 1.838500 0.000005
C -1.681102 1.094849 0.000002
H -3.516257 -0.867826 0.882905
H -3.516321 -0.867732 -0.882838
H -2.738849 -2.185187 -0.000065
H -0.322852 -2.049255 -0.000005
H 3.314875 0.324437 -0.905656
H 3.314885 0.324422 0.905657
H 3.908633 -1.120963 -0.000016
H 1.655878 1.803591 0.000006
H -0.550888 2.929389 0.000008
H -2.644226 1.599155 0.000003