19

C -1.340389 1.981846 0.000000
C -0.394203 1.039362 0.000000
C 0.190404 0.480709 1.271663
C 0.190404 -1.055435 1.264015
C 0.859865 -1.610414 0.000000
C 0.190404 -1.055435 -1.264015
C 0.190404 0.480709 -1.271663
H -1.764816 2.403672 0.896361
H -1.764816 2.403672 -0.896361
H 1.228633 0.857501 1.384127
H -0.356364 0.849113 2.161746
H 0.708448 -1.433045 2.165467
H -0.850437 -1.426791 1.332058
H 1.936495 -1.353571 0.000000
H 0.811232 -2.715386 0.000000
H 0.708448 -1.433045 -2.165467
H -0.850437 -1.426791 -1.332058
H -0.356364 0.849113 -2.161746
H 1.228633 0.857501 -1.384127