19

C 2.349578 -0.836674 -0.958746
C 1.693005 -0.074826 -0.080178
C 2.374825 0.788621 0.931712
C 0.207106 -0.035266 -0.044673
C -0.515071 -1.173379 0.345829
C -1.911467 -1.135796 0.383227
C -2.592922 0.032954 0.028462
C -1.874486 1.167031 -0.363880
C -0.477783 1.136732 -0.399597
H 3.425912 -0.890435 -1.015549
H 1.858227 -1.461756 -1.689094
H 2.138176 1.851753 0.778076
H 2.054898 0.536240 1.953358
H 3.468481 0.694197 0.903053
H 0.014509 -2.085159 0.619858
H -2.470005 -2.020468 0.688341
H -3.681361 0.059684 0.057134
H -2.404285 2.077872 -0.642112
H 0.078743 2.021684 -0.706010