66

H 0.373899 -1.448423 -1.214010
P -0.016764 -0.087193 -0.847048
N -1.277602 -0.480739 0.413959
C -2.596204 0.046558 0.112666
C -3.004866 1.381695 0.334460
C -2.108529 2.459904 0.920980
C -1.995400 3.650907 -0.041320
C -2.646851 2.898463 2.290699
C -4.318145 1.750171 -0.003037
C -5.206657 0.832637 -0.557696
C -4.797454 -0.483511 -0.773453
C -3.503924 -0.899433 -0.434034
C -3.125673 -2.353867 -0.667393
C -4.120320 -3.291118 0.032817
C -3.056784 -2.643136 -2.172635
C -0.666061 -0.165698 1.685056
C 0.660546 0.108648 1.670981
N 1.241877 0.392688 0.380249
C 2.594887 -0.044556 0.092020
C 3.085568 -1.350101 0.325343
C 2.258181 -2.475456 0.925283
C 2.040754 -3.580469 -0.117716
C 2.935726 -3.027106 2.188128
C 4.413506 -1.643550 -0.026175
C 5.241529 -0.677299 -0.592704
C 4.755286 0.612203 -0.807700
C 3.441115 0.951963 -0.461334
C 2.971894 2.379135 -0.696324
C 3.914100 3.379151 -0.011062
C 2.868204 2.655046 -2.202036
H -1.071559 2.078129 1.085243
H -2.950247 4.173041 -0.169772
H -1.272691 4.386835 0.329648
H -1.660291 3.334563 -1.034809
H -3.637547 3.360584 2.216891
H -2.732402 2.047573 2.975835
H -1.981438 3.632816 2.758622
H -4.645844 2.776911 0.169138
H -6.218446 1.140066 -0.820990
H -5.496547 -1.200175 -1.207066
H -2.116612 -2.565797 -0.228543
H -5.126419 -3.225309 -0.396047
H -3.801479 -4.336006 -0.053029
H -4.203841 -3.059130 1.100147
H -2.711092 -3.665748 -2.361534
H -4.034139 -2.535933 -2.656345
H -2.365059 -1.965031 -2.683293
H -1.292427 -0.233963 2.570053
H 1.299012 0.207413 2.544676
H 1.249816 -2.111643 1.240996
H 1.382812 -4.365835 0.271899
H 1.578271 -3.190270 -1.032072
H 2.980745 -4.062165 -0.410217
H 3.120357 -2.233119 2.920431
H 2.307515 -3.783450 2.672587
H 3.899160 -3.501620 1.969914
H 4.802124 -2.649156 0.144300
H 6.266778 -0.926945 -0.865699
H 5.408039 1.367713 -1.247588
H 1.956119 2.527680 -0.246309
H 3.529285 4.401670 -0.096058
H 4.024089 3.157110 1.056061
H 4.917332 3.375018 -0.451409
H 2.222230 1.925448 -2.701602
H 2.449233 3.649556 -2.392062
H 3.846215 2.614754 -2.694617