12

O 1.449955 -1.091040 0.000366
N 0.768850 -0.004942 -0.000458
C -0.566827 -0.002034 -0.000313
C -1.340006 -1.277592 -0.000063
C -1.316885 1.288400 -0.000069
O 1.448063 1.081460 0.000371
H -1.986473 -1.347397 0.885522
H -1.986828 -1.347486 -0.885380
H -0.690210 -2.163424 -0.000148
H -1.079374 1.897016 -0.883867
H -2.401854 1.122977 0.000130
H -1.079041 1.896906 0.883717