25

O 2.328549 -1.469216 -0.000128
C 2.366577 -0.239572 -0.000039
C 1.341451 0.743949 0.000051
H 1.680694 1.778804 0.000178
C -0.019173 0.482947 -0.000007
C -0.962164 1.580639 0.000086
C -2.310205 1.364195 0.000026
C -2.833248 0.032995 -0.000132
N -4.224046 -0.186894 -0.000197
O -5.004060 0.778785 -0.000112
O -4.672629 -1.343892 -0.000346
C -1.920023 -1.067419 -0.000224
C -0.572014 -0.850354 -0.000163
O 3.618851 0.373112 0.000178
C 4.794934 -0.502125 0.000208
C 5.972900 0.448594 0.000605
H -0.567134 2.594987 0.000205
H -3.018182 2.198592 0.000095
H -2.330410 -2.081822 -0.000343
H 0.128453 -1.688258 -0.000231
H 4.744590 -1.134204 0.902712
H 4.744896 -1.133834 -0.902571
H 5.971561 1.102092 -0.881540
H 5.971232 1.101756 0.882999
H 6.922718 -0.103255 0.000677