15

C 1.219028 1.250585 -0.178066
C 0.563046 0.124523 0.116675
C 1.172301 -1.230081 -0.064017
C -0.844783 0.137921 0.662481
C -1.872573 -0.075778 -0.447558
H 0.799486 2.235316 -0.051847
H 2.222856 1.272895 -0.569262
H 2.141789 -1.197098 -0.577522
H 1.337855 -1.723073 0.904619
H 0.518171 -1.890591 -0.650538
H -0.960668 -0.644417 1.440386
H -1.050078 1.096762 1.181765
H -1.801958 0.702844 -1.216537
H -1.735376 -1.042031 -0.947326
H -2.894196 -0.053625 -0.050829