23

C -1.906911 -3.924327 0.000000
C -0.637126 -3.076704 0.000000
C -0.956255 -1.575138 0.000000
C 0.322957 -0.728228 0.000000
C 0.000000 0.776166 0.000000
C 1.280150 1.617277 0.000000
Si 1.001646 3.465521 0.000000
H 0.249838 3.895631 1.201786
H 2.313856 4.155534 0.000000
H 0.249838 3.895631 -1.201786
H -2.526314 -3.726772 -0.882442
H -1.671218 -4.994579 0.000000
H -2.526314 -3.726772 0.882442
H -0.017823 -3.329856 0.882750
H -0.017823 -3.329856 -0.882750
H -1.576777 -1.323547 -0.881585
H -1.576777 -1.323547 0.881585
H 0.943448 -0.979406 0.881431
H 0.943448 -0.979406 -0.881431
H -0.623917 1.014625 -0.886347
H -0.623917 1.014625 0.886347
H 1.910257 1.343062 0.879501
H 1.910257 1.343062 -0.879501