21

C 0.428793 2.526698 -0.139948
C -0.303128 1.228208 -0.066048
C 0.393403 0.000105 -0.148203
N 1.799739 0.000447 -0.442717
C 2.678066 0.000668 0.497691
C -0.302553 -1.228321 -0.066064
C 0.429970 -2.526470 -0.139972
C -1.695658 -1.211389 0.088982
C -2.386109 -0.000547 0.165130
C -1.696220 1.210622 0.088998
H 0.992978 2.616769 -1.081386
H -0.238971 3.396681 -0.083635
H 1.158126 2.627477 0.677364
H 1.159346 -2.626916 0.677344
H -0.237389 -3.396764 -0.083671
H 0.994205 -2.616268 -1.081406
H -2.243440 -2.150781 0.151759
H -3.469436 -0.000797 0.285929
H -2.244446 2.149753 0.151786
H 2.511611 0.000140 1.578351
H 3.739854 0.000129 0.223193