27

O -0.960647 2.301095 0.445807
C -0.783637 1.110566 0.145926
C 0.667127 0.643592 0.092065
C 1.356831 0.658618 -1.127471
C 2.687193 0.246538 -1.181244
C 3.319291 -0.179455 0.001174
N 4.716384 -0.615708 -0.046651
O 5.283063 -0.663274 -1.133230
O 5.275512 -0.919175 1.002007
C 2.632234 -0.196515 1.228704
C 1.301761 0.216986 1.266078
C -1.727506 0.126971 -0.156720
H -1.365358 -0.862364 -0.427525
C -3.128653 0.287945 -0.158056
O -3.729266 -0.897684 -0.610315
C -5.181592 -0.982962 -0.634094
C -5.680465 -1.509590 0.697150
O -3.870838 1.223315 0.136212
H 0.854009 0.990977 -2.038799
H 3.237429 0.251606 -2.128108
H 3.140392 -0.532521 2.138809
H 0.756740 0.207032 2.213039
H -5.601800 0.006849 -0.883431
H -5.351389 -1.691334 -1.465727
H -5.206704 -2.463380 0.960883
H -5.471018 -0.809911 1.515450
H -6.765089 -1.677385 0.677042