51

H -0.021752 1.082137 -2.032252
C -0.010383 0.961185 -0.908450
C 1.234694 0.166941 -0.564395
C 1.679203 -0.820031 -1.458333
C 2.812163 -1.581800 -1.183340
C 3.539859 -1.377877 0.011038
N 4.607816 -2.252165 0.388150
C 5.233906 -3.036497 -0.714508
C 5.647893 -1.654313 1.275250
C 3.093737 -0.377881 0.905355
C 1.956277 0.373335 0.619664
C 0.022908 2.358271 -0.313615
C 0.637281 3.388843 -1.044482
C 0.688996 4.685346 -0.527337
C 0.129196 4.967120 0.723136
C -0.482255 3.944524 1.454173
C -0.535291 2.645581 0.940325
C -1.274100 0.213449 -0.530646
C -2.420847 0.360494 -1.326786
C -3.596496 -0.321324 -1.024274
C -3.661382 -1.176715 0.099736
N -4.902767 -1.767353 0.498064
C -5.906749 -1.960393 -0.588448
C -4.795923 -2.990016 1.346238
C -2.506481 -1.317988 0.901936
C -1.337434 -0.628010 0.588681
H 1.132420 -0.998075 -2.386262
H 3.124577 -2.339154 -1.901061
H 5.732845 -2.418312 -1.477592
H 5.985110 -3.727255 -0.295226
H 4.471139 -3.657240 -1.215389
H 5.180109 -1.246039 2.188179
H 6.352721 -2.439531 1.596672
H 6.229550 -0.849196 0.799128
H 3.632941 -0.191547 1.834440
H 1.629758 1.132658 1.333325
H 1.077732 3.179961 -2.019114
H 1.166696 5.479465 -1.101156
H 0.169502 5.978413 1.124683
H -0.919031 4.158739 2.429643
H -1.014032 1.856200 1.519978
H -2.396731 1.015573 -2.199700
H -4.467489 -0.182550 -1.664145
H -5.584061 -2.660006 -1.375725
H -6.846630 -2.345543 -0.158248
H -6.141771 -0.991344 -1.061784
H -4.216202 -2.768662 2.259144
H -5.802856 -3.302183 1.671021
H -4.323603 -3.845641 0.838101
H -2.519615 -1.965289 1.778587
H -0.459295 -0.752433 1.225748