28

O -0.233087 1.993131 -0.183012
C 0.575526 1.058830 -0.360842
C 0.233361 -0.311871 -0.397718
C -1.068168 -0.822181 -0.210466
O -2.052230 0.137686 0.043315
C -3.413674 -0.360621 0.247262
C -4.260060 0.885331 0.408769
O -1.456134 -2.000560 -0.245037
C 1.312839 -1.338547 -0.614595
C 2.306508 -1.426784 0.557808
C 3.430628 -0.387578 0.470899
C 2.929339 1.057520 0.588995
C 2.027721 1.480476 -0.576031
H -3.695690 -0.963879 -0.631971
H -3.407388 -0.998942 1.146280
H -5.312930 0.625109 0.580415
H -3.930046 1.496243 1.258365
H -4.220753 1.525210 -0.481498
H 0.856773 -2.337258 -0.772275
H 1.858661 -1.115535 -1.553488
H 1.763691 -1.312171 1.513902
H 2.753226 -2.439158 0.584538
H 4.169338 -0.580671 1.274091
H 3.984449 -0.514192 -0.479572
H 2.393861 1.191765 1.548763
H 3.801825 1.739586 0.636050
H 2.400927 1.055627 -1.528004
H 2.071550 2.578762 -0.702212