48

C 0.473382 3.297718 0.774794
Si -0.083704 2.032314 -0.517514
C -1.834680 2.519642 -1.044730
C 1.031098 2.224193 -2.033689
Si 0.022227 -0.003312 0.278157
C -0.629081 0.002404 2.120673
C -2.012560 0.506668 2.277390
C -3.065150 -0.256944 2.587351
Si -1.149444 -1.391754 -0.938465
C -0.648718 -1.251909 -2.758080
C -0.883201 -3.187764 -0.404535
C -3.007884 -1.059899 -0.844242
Si 2.106430 -0.670414 0.436606
C 3.215205 0.665309 1.190174
C 2.243774 -2.186552 1.561443
C 2.835867 -1.134861 -1.243656
H -0.180873 3.286483 1.657365
H 1.499407 3.103885 1.117672
H 0.450450 4.312979 0.358146
H -1.876002 3.581292 -1.320367
H -2.165455 1.938195 -1.917328
H -2.565082 2.358409 -0.239899
H 2.094454 2.137052 -1.768634
H 0.813257 1.460166 -2.794367
H 0.887604 3.206538 -2.501679
H -0.522580 -1.030908 2.521561
H 0.074491 0.623118 2.721588
H -2.133906 1.589296 2.148014
H -3.008423 -1.323619 2.732317
H -4.063222 0.130856 2.701846
H 0.435073 -1.373195 -2.897613
H -1.146438 -2.023813 -3.358754
H -0.931078 -0.275006 -3.176590
H -1.079416 -3.322365 0.668505
H -1.555563 -3.861998 -0.950109
H 0.146374 -3.518702 -0.601902
H -3.257000 -0.046826 -1.189432
H -3.569643 -1.769451 -1.463398
H -3.372907 -1.154643 0.189896
H 2.827102 1.026665 2.152163
H 4.224589 0.271142 1.367639
H 3.313558 1.532064 0.521101
H 1.601356 -3.009515 1.217507
H 3.276016 -2.559904 1.579402
H 1.958479 -1.950587 2.595531
H 2.705576 -0.327616 -1.979139
H 3.912093 -1.334284 -1.159746
H 2.362284 -2.039402 -1.651626