25

C -4.429791 -0.423854 -0.000089
O -3.433318 0.630397 -0.000151
C -2.104600 0.264955 -0.000028
C -1.233046 1.373029 -0.000594
C 0.139332 1.138645 -0.000476
C 0.655665 -0.172787 0.000183
C -0.239266 -1.251241 0.000745
C -1.625794 -1.048898 0.000652
Si 2.502174 -0.451891 0.000259
H 2.730454 -1.903338 0.001271
C 3.264446 0.261613 -1.540238
C 3.264672 0.263797 1.539632
H -5.367748 0.146282 -0.000682
H -4.341160 -1.031670 -0.905396
H -4.341795 -1.030871 0.905817
H -1.638886 2.380812 -0.001105
H 0.815011 2.000324 -0.000917
H 0.128047 -2.282745 0.001272
H -2.298436 -1.900489 0.001112
H 3.140742 1.352582 -1.607446
H 4.346444 0.054138 -1.579121
H 2.812857 -0.173983 -2.446725
H 4.346662 0.056308 1.578686
H 3.141046 1.354868 1.605291
H 2.813158 -0.170468 2.446798