18

O -2.882811 -2.302827 -0.006593
C -2.745880 -1.062235 0.000042
O -3.676501 -0.229665 0.006623
C -1.318258 -0.513207 0.000053
C -0.234910 -1.393606 0.000170
C 1.076331 -0.875276 0.000253
C 1.312690 0.507051 -0.000107
C 0.206696 1.369009 -0.000276
C -1.110745 0.866805 0.000054
N 0.425211 2.821191 -0.000702
O 1.576423 3.234251 -0.000751
O -0.554164 3.554074 -0.001225
N 2.219311 -1.798653 0.000714
O 1.992092 -2.999707 0.000608
O 3.345689 -1.322198 0.001146
H -0.404397 -2.481373 0.000155
H 2.339832 0.904947 -0.000220
H -1.968453 1.555990 0.000384