26

H -0.069237 2.183970 0.000113
C 0.066097 1.097503 0.000059
C 1.458280 0.639271 -0.000002
C 2.489676 1.603657 0.000008
C 3.829681 1.217577 -0.000045
C 4.133997 -0.144762 -0.000109
Cl 5.796274 -0.636592 -0.000176
C 3.141738 -1.126252 -0.000123
C 1.805177 -0.727545 -0.000070
N -0.915245 0.218691 0.000047
C -2.218657 0.636250 0.000105
H -2.520983 1.677870 0.000166
C -3.236710 -0.344571 0.000078
O -4.497090 0.276331 0.000129
C -5.668090 -0.599760 0.000106
C -6.853639 0.343022 0.000136
O -3.222952 -1.578125 0.000015
H 2.239550 2.665159 0.000059
H 4.621999 1.966628 -0.000037
H 3.403450 -2.184630 -0.000173
H 1.016944 -1.481123 -0.000082
H -5.617540 -1.232694 -0.901636
H -5.617534 -1.232744 0.901812
H -7.799082 -0.215525 0.000136
H -6.856226 0.996152 0.882192
H -6.856246 0.996185 -0.881895