40

C 3.566057 -0.376421 -0.152063
C 3.030147 -0.491368 -1.532992
C 1.742167 -0.374131 -1.886063
O 0.765005 -0.136260 -0.989392
Si -0.454869 0.114443 0.022030
C -0.241517 -0.882531 1.621358
C -0.284014 -2.400348 1.397902
C 0.992050 -0.507989 2.450156
C -0.585396 1.962139 0.444202
C 0.690561 2.562724 1.046984
C -1.072885 2.829259 -0.724765
C -2.056342 -0.390332 -0.872745
C -1.998856 -1.787490 -1.502395
C -3.284137 -0.258282 0.040589
H 3.986919 0.624309 0.025258
H 2.788421 -0.539464 0.621104
H 4.366143 -1.105229 0.034055
H 3.774937 -0.681040 -2.309445
H 1.331484 -0.452947 -2.892918
H -1.166069 -0.586726 2.205882
H 0.630846 -2.771871 0.920416
H -0.388319 -2.932372 2.351098
H -1.131041 -2.706568 0.760354
H 1.929310 -0.732785 1.910121
H 1.014063 0.565377 2.702984
H 1.020146 -1.065417 3.393443
H -1.387738 1.967877 1.243796
H 1.517187 2.582752 0.326986
H 0.522341 3.597503 1.370051
H 1.035036 2.001343 1.931900
H -0.363756 2.833894 -1.561473
H -2.044499 2.501044 -1.114419
H -1.195518 3.873493 -0.408783
H -2.159822 0.360361 -1.708732
H -1.869205 -2.573288 -0.739056
H -2.925269 -2.014361 -2.043363
H -1.172071 -1.886793 -2.216302
H -3.371958 0.740233 0.487862
H -4.208030 -0.434458 -0.525217
H -3.272409 -0.988367 0.860107