52

C 3.398043 -3.147507 -0.451573
N 2.379426 -2.094737 -0.284056
C 2.644802 -0.737347 -0.382915
O 3.738444 -0.259651 -0.644248
C 1.335177 0.032223 -0.117892
H 1.044690 0.593905 -1.046567
C 1.483159 0.997458 1.072830
C 1.726774 2.408836 0.613826
C 0.777088 3.408635 0.870219
C 1.012473 4.721346 0.450216
C 2.192003 5.043152 -0.227591
C 3.139827 4.046613 -0.485708
C 2.910205 2.734601 -0.067374
N 0.348744 -1.046437 0.193111
C -1.030883 -0.843443 0.062413
C -1.615967 0.361974 -0.132209
C -3.061096 0.566570 -0.150994
C -3.570273 1.795090 -0.623531
C -4.945100 2.025660 -0.657374
C -5.838625 1.041063 -0.220470
C -5.344087 -0.177303 0.253000
C -3.968556 -0.415864 0.290072
C 0.943239 -2.424215 0.005225
C 0.299166 -3.223034 -1.155370
C -0.589330 -4.298890 -0.515325
C -0.382788 -4.242384 1.010460
C 0.761188 -3.259778 1.292912
H 4.333356 -2.714789 -0.851834
H 3.630138 -3.631225 0.514265
H 3.052110 -3.923353 -1.158192
H 0.573351 0.941745 1.712544
H 2.305279 0.670675 1.745560
H -0.145361 3.167643 1.397577
H 0.271990 5.495397 0.652281
H 2.373107 6.066369 -0.553576
H 4.060286 4.295244 -1.013998
H 3.647532 1.953693 -0.273636
H -1.627955 -1.761105 0.202550
H -1.018752 1.261201 -0.291280
H -2.885039 2.568757 -0.966291
H -5.325942 2.978539 -1.025670
H -6.910662 1.224051 -0.248287
H -6.035082 -0.947500 0.596513
H -3.601508 -1.369366 0.666541
H -0.270234 -2.573360 -1.843026
H 1.076442 -3.688649 -1.792372
H -1.652002 -4.140750 -0.773001
H -0.333392 -5.299233 -0.908727
H -1.310367 -3.918685 1.517164
H -0.153782 -5.243065 1.417594
H 1.691573 -3.800587 1.548469
H 0.546843 -2.620859 2.168925