26

O -0.186407 -1.752881 -0.543077
C -0.465735 -0.597116 -0.186662
C -1.914461 -0.204629 -0.073970
C -2.731615 -0.836624 0.871678
C -4.080069 -0.481169 0.971193
C -4.611730 0.496476 0.123583
C -3.794353 1.123150 -0.823155
C -2.443544 0.776861 -0.921544
C 0.473222 0.413631 0.137891
H 0.082659 1.382902 0.449722
N 1.851005 0.270746 0.098245
C 2.462879 -0.903906 -0.285672
C 3.856187 -1.015108 -0.315079
C 4.656868 0.068272 0.044596
C 4.034660 1.260108 0.432882
C 2.644562 1.351567 0.457102
H -2.317816 -1.601320 1.529299
H -4.717250 -0.967641 1.709887
H -5.664312 0.770403 0.200897
H -4.209774 1.883851 -1.484324
H -1.805535 1.267968 -1.656910
H 1.817268 -1.757673 -0.571990
H 4.304394 -1.964518 -0.624311
H 5.745267 -0.009099 0.024401
H 4.630954 2.131761 0.721053
H 2.147136 2.282114 0.762114