35

F -3.587662 4.306533 0.557378
C -2.760122 3.307809 0.265850
C -2.817713 2.105213 0.979764
F -3.706028 1.958568 1.958713
C -1.934310 1.058287 0.661331
F -2.027564 -0.048918 1.396149
C -0.986438 1.156796 -0.364679
B 0.004102 0.000840 -0.825533
H 0.003753 0.000494 -2.034128
C 1.500897 0.280547 -0.366443
C 1.893879 1.153270 0.655305
F 0.985201 1.796359 1.386903
C 3.243551 1.390543 0.971941
F 3.564604 2.236861 1.946459
C 4.253029 0.731090 0.261418
F 5.532727 0.944687 0.551340
C 3.894560 -0.161304 -0.758608
F 4.840131 -0.802165 -1.439789
C 2.538811 -0.371794 -1.053498
F 2.254667 -1.237521 -2.025627
C -0.505209 -1.435223 -0.368425
C -1.598298 -1.999287 -1.048076
F -2.211344 -1.311807 -2.010797
C -2.097708 -3.277100 -0.753712
F -3.134165 -3.767981 -1.427233
C -1.498736 -4.040863 0.257931
F -1.957946 -5.254424 0.547310
C -0.413941 -3.504933 0.961248
F 0.163125 -4.212910 1.928042
C 0.059578 -2.218823 0.644997
F 1.079180 -1.760728 1.369433
C -0.948786 2.380531 -1.054469
F -0.062490 2.569644 -2.031308
C -1.813559 3.445630 -0.758840
F -1.741455 4.583022 -1.444353