18

C 3.715199 -0.070051 0.000023
N 2.286830 -0.404768 0.000072
C 1.409154 0.547110 -0.000035
C -0.039337 0.229797 -0.000023
C -0.959466 1.293455 0.000014
C -2.331516 1.033484 0.000032
C -2.797802 -0.285568 0.000010
C -1.886916 -1.346284 -0.000031
C -0.512964 -1.092234 -0.000049
H 4.187837 -0.529924 0.888104
H 4.187816 -0.530077 -0.887990
H 3.970294 1.001944 -0.000072
H 1.636472 1.628632 -0.000171
H -0.606364 2.325288 0.000032
H -3.040593 1.861469 0.000062
H -3.869165 -0.485631 0.000024
H -2.248141 -2.374873 -0.000049
H 0.195929 -1.921711 -0.000083