43

C -5.706452 0.337830 -0.977400
C -4.313996 0.246297 -0.448409
C -3.886533 1.131172 0.556930
C -2.587650 1.049175 1.064238
C -3.421306 -0.718197 -0.939400
C -2.118169 -0.796825 -0.435769
C -1.706590 0.085923 0.562658
P -0.003067 0.003441 1.333191
C 0.776471 -1.514978 0.565029
C 0.427946 -2.753713 1.111913
C 1.001697 -3.921662 0.603475
C 1.931708 -3.856573 -0.448567
C 2.544042 -5.109940 -0.978657
C 2.275802 -2.606506 -0.985225
C 1.696923 -1.437115 -0.480375
C 0.925212 1.435782 0.565837
C 2.228167 1.665367 1.019546
C 2.956737 2.745639 0.516684
C 2.384661 3.606759 -0.436152
C 3.170501 4.761508 -0.961565
C 1.075647 3.367056 -0.880023
C 0.347644 2.280955 -0.381400
H -5.942743 1.353708 -1.326987
H -5.891594 -0.340719 -1.820989
H -6.445960 0.090286 -0.200695
H -4.572735 1.882590 0.944227
H -2.290706 1.750178 1.848303
H -3.740114 -1.409758 -1.717515
H -1.447016 -1.557365 -0.843321
H -0.288211 -2.841541 1.932711
H 0.728966 -4.887279 1.026140
H 1.778297 -5.834264 -1.293785
H 3.195555 -4.937176 -1.845845
H 3.156936 -5.610333 -0.213625
H 2.995650 -2.542552 -1.799491
H 1.984647 -0.479726 -0.922597
H 2.703247 1.018429 1.761255
H 3.972426 2.923505 0.866309
H 4.115551 4.432770 -1.419129
H 2.630383 5.337879 -1.724683
H 3.435739 5.465255 -0.158195
H 0.620847 4.026217 -1.617620
H -0.667926 2.120553 -0.752543