19

C 1.954803 1.147475 -0.046634
C 1.245260 0.029755 0.130525
C 1.626638 -1.277550 -0.486971
C 0.000001 -0.000037 0.985018
C -1.245260 -0.029765 0.130525
C -1.626639 1.277587 -0.486869
C -1.954803 -1.147472 -0.046719
H 1.695741 2.096980 0.393132
H 2.848972 1.197109 -0.646922
H 1.996984 -1.981743 0.271976
H 0.765795 -1.758864 -0.974348
H 2.414610 -1.178008 -1.244536
H 0.033490 -0.879018 1.663969
H -0.033487 0.878892 1.664036
H -0.765798 1.758942 -0.974208
H -2.414611 1.178103 -1.244443
H -1.996988 1.981720 0.272132
H -2.848972 -1.197060 -0.647010
H -1.695739 -2.097011 0.392973