23

C 0.750034 -0.066882 2.858602
C 0.750034 0.758629 1.584737
Ge 0.297190 -0.307871 0.000000
H 1.072563 -1.606500 0.000000
C -1.628132 -0.694060 0.000000
C -2.491092 0.554504 0.000000
C 0.750034 0.758629 -1.584737
C 0.750034 -0.066882 -2.858602
H -0.227064 -0.522769 3.063740
H 1.490867 -0.875918 2.837630
H 0.993731 0.558431 3.728985
H 0.034257 1.596814 1.674112
H 1.738554 1.230915 1.434602
H -1.865374 -1.318463 -0.881869
H -1.865374 -1.318463 0.881869
H -3.558313 0.293148 0.000000
H -2.319870 1.181791 0.883941
H -2.319870 1.181791 -0.883941
H 0.034257 1.596814 -1.674112
H 1.738554 1.230915 -1.434602
H 1.490867 -0.875918 -2.837630
H -0.227064 -0.522769 -3.063740
H 0.993731 0.558431 -3.728985