38

C 0.745439 -0.371328 -0.342591
N 2.115235 -0.534563 -0.697896
C 2.681845 -1.923360 -0.757081
C 3.755102 -2.040437 0.340978
C 4.029414 -0.611298 0.838251
C 3.127781 0.322491 0.008477
C 0.334930 1.038488 -0.077988
C 0.351264 1.984169 -1.114132
C -0.045628 3.299718 -0.860185
C -0.454181 3.675117 0.423843
C -0.467811 2.732192 1.456889
C -0.075091 1.413914 1.209995
C -0.150825 -1.386568 -0.363825
C -1.598899 -1.254472 -0.202194
C -2.342069 -0.313548 -0.937281
C -3.727384 -0.232296 -0.779582
C -4.388395 -1.086315 0.108494
C -3.655807 -2.028179 0.839209
C -2.271657 -2.117471 0.684961
H 1.900843 -2.706594 -0.655553
H 3.126793 -2.045814 -1.768400
H 3.410514 -2.686777 1.167050
H 4.671822 -2.513511 -0.051614
H 3.810253 -0.519396 1.916577
H 5.092887 -0.340262 0.721696
H 3.712266 0.846266 -0.778709
H 2.664258 1.106399 0.637630
H 0.672261 1.691328 -2.113952
H -0.035966 4.034490 -1.665556
H -0.761485 4.702384 0.619288
H -0.785609 3.025075 2.457808
H -0.090531 0.678066 2.013838
H 0.189412 -2.418659 -0.504587
H -1.833434 0.353450 -1.631596
H -4.295183 0.500356 -1.352947
H -5.467607 -1.020122 0.229993
H -4.168171 -2.696020 1.531602
H -1.708130 -2.853621 1.255285