38

C 3.911657 4.198672 -0.618618
C 2.929151 3.300998 -0.002539
S 2.603164 1.721829 -0.753080
C 2.158154 3.440469 1.103944
C 1.297534 2.297024 1.379164
C 1.419898 1.298957 0.483421
B 0.815216 -0.134178 0.248379
C -0.771387 -0.130193 0.120262
C -1.373475 0.002568 -1.134425
C -2.764260 0.042663 -1.247527
C -3.557643 -0.051371 -0.093556
C -5.048739 -0.010256 -0.172113
F -5.669591 -1.115478 0.289594
F -5.626458 0.978189 0.541728
F -5.595769 0.148588 -1.391532
C -2.952737 -0.189397 1.168957
C -1.562954 -0.228029 1.270085
O 1.467568 -0.672105 -1.037463
C 2.175723 -1.756080 -0.650551
C 2.054822 -1.997647 0.768093
C 2.699399 -3.056126 1.371643
C 3.484470 -3.893310 0.538813
C 3.601832 -3.661006 -0.822386
C 2.942711 -2.575006 -1.451932
O 1.258790 -1.083470 1.368877
H 3.642427 4.469327 -1.652995
H 4.018263 5.145154 -0.063547
H 4.916910 3.747741 -0.667102
H 2.153026 4.305578 1.752767
H 0.637530 2.294080 2.235558
H -0.751210 0.070515 -2.027797
H -3.216831 0.146746 -2.234696
H -3.563097 -0.265653 2.070553
H -1.088044 -0.337459 2.245722
H 2.616136 -3.249077 2.435212
H 4.002365 -4.735637 0.995058
H 4.212637 -4.320398 -1.437459
H 3.043760 -2.403983 -2.517729