19

C 3.317898 -1.342180 0.000000
C 2.390374 -0.130444 0.000000
C 0.916216 -0.553389 0.000000
C 0.000000 0.666843 0.000000
O -1.342907 0.078752 0.000000
C -2.389174 0.986096 0.000000
C -3.621227 0.474569 0.000000
H 3.162531 -1.973829 0.882728
H 3.162531 -1.973829 -0.882728
H 4.370790 -1.036254 0.000000
H 2.602754 0.503686 0.884150
H 2.602754 0.503686 -0.884150
H 0.695216 -1.189511 -0.880704
H 0.695216 -1.189511 0.880704
H 0.110959 1.287835 0.904637
H 0.110959 1.287835 -0.904637
H -2.120192 2.036946 0.000000
H -3.827493 -0.583677 0.000000
H -4.507291 1.087635 0.000000