25

O 1.511903 1.492930 -0.422553
C 1.237918 0.292113 -0.323831
C -0.000568 -0.382105 -0.269278
C -0.014498 -1.878838 -0.225540
C -1.226403 0.317431 -0.274165
O -2.325028 -0.554251 -0.333176
C -3.661281 0.019951 -0.267845
C -4.130156 0.040980 1.174218
O -1.479133 1.526514 -0.244847
O 2.321984 -0.599058 -0.278204
C 3.666123 -0.040837 -0.241236
C 4.107440 0.109666 1.202037
H 0.864411 -2.273221 0.301262
H -0.907517 -2.257708 0.288572
H -0.011413 -2.308518 -1.234798
H -3.657174 1.024418 -0.725909
H -4.238850 -0.683355 -0.894902
H -4.067682 -0.952305 1.635725
H -3.524679 0.718835 1.787992
H -5.173385 0.373809 1.247955
H 4.244538 -0.807726 -0.787498
H 3.686318 0.916248 -0.791506
H 3.476077 0.821354 1.747497
H 4.058462 -0.842710 1.744132
H 5.141640 0.471623 1.265558