26

O 1.194508 2.015955 -0.266153
C 1.280765 0.790847 -0.111117
C 2.640930 0.155708 -0.037234
C 3.541363 0.566758 0.954139
C 4.811586 -0.013065 1.021452
C 5.184365 -0.993645 0.096057
C 4.285567 -1.398863 -0.896588
C 3.011229 -0.828371 -0.963095
C 0.173201 -0.098529 0.015015
H 0.399779 -1.155744 0.170377
N -1.152096 0.267315 -0.034632
C -1.559728 1.572728 -0.239170
C -2.912591 1.913790 -0.287960
C -3.899366 0.938871 -0.129062
C -3.474648 -0.374851 0.078251
Cl -4.633225 -1.623027 0.286900
C -2.121143 -0.712833 0.125535
H 3.251468 1.334413 1.672211
H 5.512041 0.300950 1.795608
H 6.176877 -1.442641 0.148286
H 4.577854 -2.161635 -1.618620
H 2.309813 -1.146493 -1.735531
H -0.774953 2.345533 -0.365590
H -3.190452 2.961258 -0.453128
H -4.959351 1.196001 -0.166518
H -1.798816 -1.750303 0.289917