42

Si -2.380082 -1.122294 -0.018331
Si 2.377283 -1.125117 0.018595
O -1.400730 0.139580 0.015467
O 1.390713 0.131614 -0.022721
C -0.666441 3.755065 0.372403
C 0.676269 3.752842 -0.369978
C -1.509724 2.525545 0.007121
C 1.512850 2.517156 -0.010089
C -0.679619 1.273523 0.011036
C 0.675874 1.269668 -0.016782
C -2.628689 -1.637102 -1.785725
C -4.007331 -0.643505 0.740231
C -1.614704 -2.510175 0.949319
C 1.585214 -2.552107 -0.866973
C 3.971102 -0.667650 -0.819830
C 2.697060 -1.573928 1.792399
H -0.491223 3.778458 1.466355
H -1.230535 4.677669 0.136290
H 0.501144 3.781930 -1.463803
H 1.245524 4.671260 -0.129918
H -2.360951 2.416835 0.711877
H -1.968876 2.651768 -0.996977
H 2.362417 2.406035 -0.716467
H 1.974161 2.637400 0.993787
H -3.294045 -2.517690 -1.803878
H -3.094370 -0.843789 -2.387333
H -1.680912 -1.913096 -2.270563
H -4.677116 -1.520729 0.709321
H -3.895615 -0.336123 1.789951
H -4.495178 0.177590 0.196974
H -0.664716 -2.848742 0.491761
H -1.401163 -2.223944 1.988750
H -2.314168 -3.363008 0.961385
H 1.332280 -2.306543 -1.908037
H 2.289161 -3.401348 -0.872209
H 0.654477 -2.877646 -0.362743
H 4.476353 0.173096 -0.324765
H 4.645595 -1.541116 -0.786156
H 3.816168 -0.396325 -1.874044
H 1.771400 -1.843944 2.321253
H 3.374018 -2.445523 1.816744
H 3.174323 -0.754253 2.347994