17

N -2.844014 0.000015 0.106147
C -1.422983 -0.000003 -0.006576
C -0.714607 1.219039 -0.009393
C 0.678610 1.210520 -0.005264
C 1.390626 0.000002 -0.005072
C 2.883608 0.000000 0.006405
C 0.678615 -1.210515 -0.005273
C -0.714604 -1.219040 -0.009403
H -3.293961 0.829616 -0.273765
H -3.293960 -0.829723 -0.273468
H -1.252292 2.165441 -0.013695
H 1.219811 2.157550 -0.005357
H 3.270938 -0.000238 1.036369
H 3.307215 -0.881937 -0.493491
H 3.307227 0.882158 -0.493088
H 1.219818 -2.157545 -0.005376
H -1.252281 -2.165446 -0.013709