20

C 2.193880 0.659173 -0.236654
C 2.163949 -0.838105 0.125341
N 0.843053 -1.498804 0.040644
C -0.218171 -0.745031 -0.054735
N -1.559382 -1.244058 0.096959
C -2.500798 -0.073447 0.014982
C -1.612153 1.194924 0.021959
N -0.244467 0.680084 -0.299420
C 0.938081 1.403509 0.249559
H 3.096648 1.135288 0.191648
H 2.288387 0.773120 -1.335588
H 2.855019 -1.399383 -0.543983
H 2.540070 -0.988651 1.164330
H -1.803345 -2.016852 -0.530878
H -3.146597 -0.114931 -0.884476
H -3.165788 -0.112252 0.904064
H -1.909469 1.916104 -0.767373
H -1.662126 1.726281 0.993599
H 0.920347 1.469885 1.358932
H 0.923707 2.444704 -0.140275