61

N 0.751127 -1.409587 -1.055378
C 1.942888 -0.703975 -0.912543
C 3.179316 -1.270114 -0.861315
C 4.389498 -0.530561 -0.538028
C 5.646091 -1.135487 -0.764363
C 6.825442 -0.453762 -0.468678
C 6.782237 0.841532 0.059496
C 5.544357 1.447884 0.292571
C 4.358573 0.772633 0.000311
C 0.752010 -2.798467 -1.614625
C -0.398610 -2.861128 -2.629558
C -1.339562 -1.697064 -2.270033
C -0.485692 -0.670498 -1.490502
Si -1.439206 0.146994 -0.030884
C -0.232996 1.260849 0.873273
C 0.410016 2.308416 0.187880
C 1.344101 3.118907 0.839437
C 1.645623 2.896644 2.187801
C 1.007923 1.865039 2.880291
C 0.073486 1.051271 2.226382
C -2.831083 1.159237 -0.776410
C -2.912618 2.548641 -0.592896
C -3.969873 3.282161 -1.145542
C -4.961841 2.634032 -1.885441
C -4.897528 1.248790 -2.067771
C -3.841610 0.517292 -1.514927
C -2.146725 -1.129726 1.136892
C -1.334268 -2.190857 1.573538
C -1.832959 -3.148996 2.462443
C -3.148728 -3.056235 2.927306
C -3.964012 -2.003682 2.502052
C -3.465249 -1.045063 1.611915
H 1.824134 0.379118 -0.732770
H 3.317057 -2.330208 -1.067853
H 5.692696 -2.141889 -1.174704
H 7.787632 -0.932251 -0.649808
H 7.703712 1.370291 0.288204
H 5.503708 2.454987 0.707115
H 3.402718 1.257437 0.197700
H 1.725951 -3.061079 -2.077346
H 0.589844 -3.503616 -0.770614
H -0.021311 -2.757748 -3.662839
H -0.922078 -3.831431 -2.589655
H -1.778995 -1.243332 -3.176591
H -2.189694 -2.077830 -1.668759
H -0.207386 0.171142 -2.190308
H 0.189358 2.506219 -0.865082
H 1.837157 3.925314 0.298141
H 2.375168 3.527405 2.694789
H 1.237865 1.689957 3.930606
H -0.409517 0.249219 2.792157
H -2.156125 3.083514 -0.011977
H -4.018113 4.360030 -0.996275
H -5.784037 3.204167 -2.316682
H -5.671754 0.739005 -2.639508
H -3.822924 -0.565873 -1.665474
H -0.300625 -2.281409 1.222258
H -1.195546 -3.967370 2.793642
H -3.536710 -3.802567 3.619683
H -4.988431 -1.928116 2.863375
H -4.122019 -0.230155 1.294866