23

O -4.240712 -1.179958 0.045865
C -4.155646 0.067129 -0.001498
O -5.093167 0.863089 0.222973
C -2.796946 0.694644 -0.381503
N -1.718331 -0.307942 -0.287509
C -0.435711 0.054020 0.058106
C 0.568677 -1.100226 0.139137
N 1.837261 -0.668079 0.744951
C 2.891004 -0.229244 -0.043217
C 4.120922 0.279505 0.704974
N 5.264623 0.591881 -0.181022
O 2.844457 -0.299805 -1.270247
O -0.127971 1.231200 0.248013
H -2.860927 1.094486 -1.419241
H -2.584235 1.570140 0.271611
H -2.021211 -1.282517 -0.386146
H 0.154630 -1.951825 0.734283
H 0.751821 -1.502342 -0.892128
H 1.818849 -0.511487 1.753913
H 3.854688 1.197138 1.286381
H 4.448858 -0.470367 1.466799
H 5.551105 -0.242376 -0.694278
H 4.986898 1.276957 -0.884958