21

C 0.930418 -0.079878 -0.055141
C -0.544070 -0.037624 -0.029970
C -1.265225 -1.196797 0.298317
C -2.661663 -1.161403 0.322405
C -3.339533 0.023650 0.018129
C -2.620494 1.177277 -0.312607
C -1.223958 1.151480 -0.337921
N 1.655171 -1.043851 -0.573196
C 3.095706 -0.722333 -0.371602
C 3.128026 0.640271 0.379511
N 1.681786 1.045784 0.453355
H -0.735487 -2.121961 0.530579
H -3.222767 -2.061077 0.577182
H -4.429775 0.047994 0.037238
H -3.150264 2.099754 -0.552428
H -0.664922 2.051086 -0.600557
H 3.583121 -1.537299 0.198916
H 3.603775 -0.663843 -1.355298
H 3.600077 0.561910 1.376207
H 3.678382 1.414764 -0.191596
H 1.383918 1.427283 1.351923