18

C -2.510720 -1.019688 0.001478
C -1.216972 -0.274447 -0.006463
C -0.000019 -0.971618 0.000001
C 1.216945 -0.274493 0.006459
C 2.510709 -1.019706 -0.001470
C 1.212844 1.130022 0.005393
C 0.000024 1.822059 -0.000005
C -1.212828 1.130056 -0.005402
H -2.875507 -1.159794 1.030741
H -3.302836 -0.491564 -0.547215
H -2.426306 -2.020133 -0.444537
H -0.000047 -2.059484 0.000007
H 2.876637 -1.157866 -1.030591
H 3.302183 -0.492533 0.549070
H 2.425892 -2.020980 0.442592
H 2.151927 1.678246 0.008390
H 0.000036 2.912672 -0.000006
H -2.151885 1.678323 -0.008401