65

O -0.019736 0.641970 -1.658129
C -0.009231 0.510936 -0.413869
C -0.055108 -0.971567 0.010049
N 1.035819 -1.805009 0.179173
C 2.421484 -1.445940 0.009521
C 2.944049 -1.320705 -1.302005
C 2.081807 -1.543762 -2.492513
C 4.290687 -0.976466 -1.454771
C 5.114586 -0.765941 -0.338166
C 6.542047 -0.383549 -0.524061
C 4.582368 -0.904785 0.953131
C 3.239970 -1.245839 1.146376
C 2.692157 -1.385446 2.522550
C 0.578203 -3.104237 0.480741
C -0.806656 -3.062975 0.491395
N -1.190805 -1.738820 0.195185
C -2.555496 -1.296046 0.057241
C -3.335581 -1.059912 1.214392
C -2.764159 -1.245609 2.575584
C -4.660608 -0.643334 1.055015
C -5.213204 -0.463556 -0.222973
C -6.621953 -0.003649 -0.371966
C -4.427074 -0.707144 -1.359616
C -3.098469 -1.127491 -1.240756
C -2.276662 -1.385233 -2.452418
C 0.058368 1.451570 0.590944
C 0.152839 2.874558 0.289106
C 0.717546 3.779050 1.218088
C 0.800406 5.140888 0.933940
C 0.325037 5.644251 -0.281687
C -0.231132 4.762939 -1.213846
C -0.315767 3.399538 -0.935998
C 0.041112 1.023388 2.024294
H 1.226962 -0.833035 -2.507628
H 2.615567 -1.414230 -3.443720
H 1.647340 -2.554622 -2.505678
H 4.706840 -0.870451 -2.457046
H 6.644627 0.709520 -0.629654
H 7.178592 -0.677273 0.323206
H 6.986924 -0.827420 -1.426911
H 5.224487 -0.742730 1.819458
H 3.448122 -1.230077 3.305952
H 1.886022 -0.642963 2.710425
H 2.254778 -2.379901 2.700100
H 1.246291 -3.936253 0.657560
H -1.520378 -3.853574 0.679430
H -1.862759 -0.613219 2.726976
H -3.468150 -0.983158 3.378659
H -2.454346 -2.286751 2.756501
H -5.273436 -0.454101 1.936907
H -6.671469 1.096731 -0.428190
H -7.100375 -0.384928 -1.286112
H -7.261084 -0.302732 0.471611
H -4.858441 -0.567774 -2.351357
H -1.387592 -0.717752 -2.482524
H -1.893040 -2.416057 -2.482030
H -2.824861 -1.222110 -3.390072
H 1.095772 3.407599 2.168909
H 1.239893 5.819157 1.664949
H 0.389070 6.706492 -0.498798
H -0.601788 5.144411 -2.164887
H -0.742432 2.721457 -1.675783
H 0.962404 0.481907 2.305967
H -0.047096 1.872694 2.714866
H -0.813059 0.358589 2.247109