42

C -1.526550 3.392671 1.086766
C -1.856573 2.327459 0.035685
C -1.867387 2.938472 -1.368669
C -0.895786 1.115056 0.158693
H -0.911794 0.776341 1.226884
C 0.558058 1.510299 -0.185791
N 1.419374 0.300770 -0.199660
C 0.837208 -0.936055 -0.589514
N -0.401484 -1.178621 -0.843679
C -1.387845 -0.073990 -0.725882
H -1.570885 0.306735 -1.771937
C -2.668060 -0.661827 -0.157146
C -3.869849 -0.507786 -0.863792
C -5.059168 -1.026073 -0.343215
C -5.056105 -1.702148 0.880814
C -3.857692 -1.861828 1.583947
C -2.666443 -1.344286 1.068475
S 2.121412 -2.179865 -0.662391
C 3.344772 -1.048277 -0.108146
C 4.685836 -1.308963 0.122070
C 5.502336 -0.252901 0.548571
C 4.971955 1.030862 0.734537
C 3.619936 1.304125 0.504587
C 2.799958 0.249876 0.082081
H -2.278774 4.191048 1.085207
H -1.503772 2.973707 2.099170
H -0.557091 3.869960 0.906310
H -2.889735 1.943747 0.251411
H -0.917432 3.423967 -1.619213
H -2.064178 2.183403 -2.139855
H -2.648762 3.702925 -1.457948
H 0.612838 2.003782 -1.184198
H 0.942680 2.237640 0.563881
H -3.882650 0.014585 -1.819981
H -5.991089 -0.902994 -0.894761
H -5.984003 -2.104443 1.284906
H -3.851666 -2.391214 2.536590
H -1.733958 -1.477708 1.616322
H 5.100819 -2.307896 -0.022381
H 6.560017 -0.433038 0.737467
H 5.628168 1.839117 1.066307
H 3.221820 2.305019 0.653009