48

C 3.598771 -3.214983 -0.476669
N 2.503044 -2.250348 -0.274997
C 2.641999 -0.878889 -0.399968
O 3.675107 -0.309391 -0.721641
C 1.284096 -0.221986 -0.080553
H 0.907904 0.302204 -1.000442
C 1.398044 0.767165 1.094021
C 1.522134 2.187247 0.614391
C 0.499275 3.111468 0.873421
C 0.624853 4.434361 0.438512
C 1.766934 4.841448 -0.257345
C 2.786833 3.919998 -0.519708
C 2.666894 2.598267 -0.086330
N 0.402488 -1.372391 0.289474
C -0.990334 -1.290436 0.136937
C -1.672182 -0.145613 -0.098379
C -3.130630 -0.067861 -0.130179
C -3.743157 1.025606 -0.777771
C -5.133019 1.130548 -0.826382
C -5.937279 0.153116 -0.229313
C -5.339177 -0.930881 0.419169
C -3.947988 -1.043229 0.472056
C 1.114826 -2.701706 0.107882
C 0.510887 -3.540706 -1.018218
C 1.128046 -3.445877 1.440883
H 4.521552 -2.688723 -0.781949
H 3.812305 -3.769935 0.454171
H 3.344171 -3.941822 -1.268395
H 0.514054 0.653067 1.761664
H 2.261952 0.508959 1.743532
H -0.394884 2.803521 1.414452
H -0.172061 5.149439 0.643082
H 1.862850 5.872552 -0.594429
H 3.677797 4.234977 -1.062876
H 3.460222 1.875303 -0.296636
H -1.512237 -2.247360 0.302265
H -1.154285 0.796392 -0.285555
H -3.127136 1.791888 -1.245752
H -5.595204 1.978861 -1.331676
H -7.021256 0.237972 -0.269001
H -5.960744 -1.693975 0.888184
H -3.499019 -1.890212 0.988192
H 0.434440 -2.985142 -1.962341
H 1.115161 -4.435601 -1.224505
H -0.495866 -3.902605 -0.770267
H 0.109488 -3.655321 1.795328
H 1.645355 -4.411212 1.362787
H 1.626906 -2.871270 2.233213