18

C 2.088349 -1.256643 0.000019
C 1.284298 0.000000 -0.000001
C 2.088349 1.256643 -0.000019
C -0.067984 0.000000 0.000000
C -0.971325 -1.174348 0.000025
C -2.258444 -0.736217 0.000023
C -2.258444 0.736217 -0.000028
C -0.971325 1.174348 -0.000019
H 2.746195 -1.312542 0.881762
H 1.478747 -2.171099 0.000269
H 2.745828 -1.312782 -0.881985
H 2.746199 1.312541 -0.881759
H 1.478748 2.171100 -0.000273
H 2.745824 1.312783 0.881988
H -0.613019 -2.186874 0.000045
H -3.158174 -1.322014 0.000035
H -3.158174 1.322014 -0.000046
H -0.613019 2.186874 -0.000038