51

C 1.134419 2.566867 0.768149
C 2.536250 1.949247 0.836657
N 2.473052 0.611298 1.506225
C 3.821766 -0.025853 1.611340
C 4.503904 -0.275432 0.285905
C 5.464001 0.631704 -0.187444
C 6.098486 0.406824 -1.412177
C 5.779452 -0.723425 -2.171673
C 4.824916 -1.630492 -1.700975
C 4.188606 -1.409402 -0.476103
C 1.390612 -0.220721 1.094660
C 1.366250 -1.590943 1.464615
N 0.316452 -2.404989 1.226089
C -0.769688 -1.893742 0.607259
C -0.871237 -0.537992 0.204152
N -2.096578 -0.011483 -0.288346
C -1.967860 1.275163 -1.040846
C -1.108065 2.251929 -0.229486
N 0.259242 1.666800 -0.050423
C 0.243270 0.316889 0.446591
C -3.048882 -0.957983 -0.952241
C -4.459876 -0.565930 -0.577917
C -5.292917 0.054526 -1.519708
C -6.603073 0.398495 -1.173571
C -7.085504 0.128928 0.110894
C -6.253939 -0.486987 1.052211
C -4.944446 -0.834865 0.711038
H 0.731403 2.744412 1.790155
H 1.185036 3.559782 0.266189
H 2.980780 1.886850 -0.182733
H 3.207013 2.602041 1.441620
H 4.443454 0.642559 2.256086
H 3.729800 -0.977684 2.189121
H 5.719620 1.514765 0.398646
H 6.843393 1.115057 -1.775599
H 6.273843 -0.896976 -3.126987
H 4.576189 -2.513724 -2.289704
H 3.447633 -2.123654 -0.117634
H 2.222519 -2.042724 1.981184
H -1.600714 -2.589534 0.429496
H -1.536582 1.124266 -2.056276
H -2.988725 1.698880 -1.185287
H -1.001050 3.211316 -0.786102
H -1.600227 2.495591 0.738367
H -2.913097 -0.969333 -2.058977
H -2.857178 -2.009275 -0.621788
H -4.924726 0.268487 -2.523035
H -7.249409 0.878650 -1.908548
H -8.106918 0.397587 0.378031
H -6.627926 -0.696874 2.054438
H -4.297985 -1.312671 1.446549