13

C -1.374328 -0.850759 -0.326776
S 0.000310 0.128825 0.071613
C 1.352539 -0.753936 -0.573718
C -0.128780 1.537511 -0.526549
O 0.168585 0.038686 1.557476
H -1.307456 -1.893823 0.020021
H -2.317072 -0.478103 0.107397
H -1.580920 -0.923538 -1.406814
H 1.303772 -0.912008 -1.661946
H 2.317407 -0.247734 -0.410870
H 1.489691 -1.756822 -0.143052
H 0.557120 2.346267 -0.392213
H -0.912771 1.898167 -1.155888