31

C -0.345149 2.102143 1.037970
C -0.139936 1.073833 0.197300
C 1.217706 0.454569 0.117931
C 1.664628 -0.374977 1.156813
C 2.944626 -0.933193 1.099121
C 3.779779 -0.665380 0.009488
C 3.334217 0.163712 -1.025263
C 2.055129 0.724554 -0.974415
N -1.096263 0.602329 -0.758296
C -1.021250 -0.851871 -1.111351
C -1.661987 -1.755224 -0.044642
C -3.113845 -1.340211 0.228116
C -3.214078 0.156217 0.552337
C -2.521052 1.003200 -0.527755
H -1.289322 2.600372 1.174066
H 0.437323 2.519109 1.648482
H 1.015475 -0.581790 2.007292
H 3.292129 -1.578221 1.906275
H 4.777424 -1.101672 -0.032838
H 3.985108 0.373136 -1.874299
H 1.707595 1.369132 -1.781297
H -1.546641 -0.975890 -2.085350
H 0.034095 -1.146732 -1.290058
H -1.621969 -2.810174 -0.375279
H -1.072131 -1.708438 0.891078
H -3.743550 -1.577146 -0.651441
H -3.526054 -1.935721 1.064729
H -4.274558 0.458079 0.641361
H -2.757588 0.360560 1.540122
H -2.567276 2.082447 -0.267103
H -3.048938 0.892404 -1.501578