29

O -1.197131 -2.275368 0.999390
C -1.508120 -1.180350 0.544554
C -0.756218 -0.349138 -0.332709
C -1.151636 0.943857 -0.776158
N -2.465969 1.359502 -0.353959
C -2.986837 2.680558 -0.800032
O -0.507628 1.731316 -1.463396
I 1.035298 -1.094365 -1.029965
C 2.345904 0.133375 0.176716
C 3.239414 -0.516124 1.016661
C 4.112168 0.284050 1.766563
C 4.058013 1.679097 1.661144
C 3.134318 2.290622 0.806133
C 2.254804 1.510767 0.042812
N -2.800410 -0.657005 0.920288
C -3.665231 -1.457756 1.829695
C -3.311682 0.590260 0.484752
O -4.425381 0.981443 0.809271
H -2.355968 3.083059 -1.613524
H -4.020791 2.581577 -1.173455
H -2.984047 3.401368 0.034836
H 3.276647 -1.603784 1.107204
H 4.832899 -0.188540 2.437496
H 4.740733 2.294481 2.252687
H 3.092978 3.379484 0.729316
H 1.524745 1.983999 -0.627229
H -3.303275 -2.501171 1.876772
H -3.650830 -1.037191 2.849339
H -4.707522 -1.463870 1.467492