25

C 3.117667 -0.008709 0.698459
C 2.268100 -0.004328 -0.326858
C 0.798485 0.000013 -0.174949
C 0.089906 -1.217930 -0.113560
C 0.820763 -2.518779 -0.184859
C -1.305031 -1.206356 0.010836
C -2.004289 0.007962 0.074301
C -3.491696 0.000562 0.207384
C -1.299545 1.216958 0.011527
C 0.097028 1.220490 -0.112941
C 0.833971 2.517963 -0.183468
H 4.191426 -0.011861 0.579809
H 2.806899 -0.009494 1.733451
H 2.609668 -0.003636 -1.365905
H 1.585410 -2.592792 0.603402
H 0.161058 -3.389385 -0.078156
H 1.347939 -2.628005 -1.144690
H -1.851730 -2.145357 0.058731
H -3.809654 -0.510306 1.128448
H -3.925975 1.008717 0.235031
H -3.968015 -0.530517 -0.630036
H -1.838184 2.160614 0.059488
H 1.600050 2.587371 0.603816
H 1.360321 2.625967 -1.143901
H 0.178629 3.391610 -0.074719