14

O 2.242487 -1.997354 0.000000
O 1.757212 -0.744386 0.000000
C 0.388900 -0.680342 0.000000
C 0.000000 0.783595 0.000000
C -1.515523 0.944731 0.000000
N -1.896412 2.415204 0.000000
H -1.527890 2.900747 0.835966
H -1.527890 2.900747 -0.835966
H -2.926038 2.527017 0.000000
O -0.371706 -1.631474 0.000000
H 0.464735 1.283685 0.883023
H 0.464735 1.283685 -0.883023
H -1.968487 0.447749 -0.895432
H -1.968487 0.447749 0.895432