19

B -0.025806 2.171822 0.000140
H 0.468984 2.556545 1.015668
H -1.160069 2.542710 -0.077449
H 0.607954 2.564931 -0.931700
C -0.002402 0.610174 -0.001819
N -1.106393 -0.232735 0.001152
C -2.506847 0.206293 -0.000071
C -0.680510 -1.580503 0.001933
C 0.701589 -1.571165 -0.000797
N 1.111631 -0.217440 -0.006145
C 2.509225 0.230928 0.002541
H -3.047080 -0.190876 -0.878970
H -3.029512 -0.130934 0.913952
H -2.557555 1.318802 -0.036664
H -1.365571 -2.413006 0.004126
H 1.396907 -2.395118 -0.000496
H 3.142228 -0.429634 -0.618008
H 2.594268 1.260214 -0.399186
H 2.915479 0.234125 1.032258