29

O 1.372853 -1.336002 1.755398
S 1.756729 -1.325019 0.315719
C 0.464442 -1.309225 -0.701280
H 0.654345 -1.727846 -1.696244
C -0.805094 -0.836097 -0.464267
C -1.800407 -0.869671 -1.519263
C -3.062099 -0.386705 -1.333090
C -3.450625 0.167674 -0.072170
N -4.751460 0.667158 0.120046
O -5.567540 0.652133 -0.815488
O -5.086602 1.123115 1.224750
C -2.492466 0.198918 0.989112
C -1.228372 -0.280768 0.801750
C 2.661922 0.133826 0.053539
C 2.052838 1.378420 0.241153
C 2.780842 2.553390 0.032702
C 4.120977 2.482637 -0.364918
C 4.731424 1.238710 -0.553158
C 3.999888 0.065074 -0.342510
O 2.659973 -2.470038 0.008571
H -1.508170 -1.293786 -2.478556
H -3.803518 -0.411312 -2.137643
H -2.801347 0.617159 1.952525
H -0.513124 -0.268138 1.629187
H 1.005193 1.445846 0.549309
H 2.305067 3.523009 0.179191
H 4.689660 3.400071 -0.527977
H 5.774858 1.182251 -0.862741
H 4.480502 -0.907832 -0.490338