13

C -1.916585 -0.135262 0.034593
C -0.547975 0.531142 -0.061682
C 0.582761 -0.508248 0.007048
N 1.913421 0.172455 -0.088424
H -2.072788 -0.865911 -0.767951
H -2.046266 -0.664811 0.986071
H -2.723206 0.604008 -0.038141
H -0.472227 1.107195 -1.004838
H -0.432158 1.274798 0.751682
H 0.478356 -1.119640 0.930084
H 0.502829 -1.217039 -0.846698
H 2.007381 0.858599 0.660166
H 2.654918 -0.510179 0.068840