20

H -1.225546 2.176158 -0.883347
C -1.211676 1.496161 0.000008
H -1.225561 2.176122 0.883391
C -2.458711 0.667437 -0.000018
C -2.458711 -0.667437 -0.000012
C -1.211676 -1.496161 0.000023
C 0.066610 -0.703515 0.000010
C 0.066610 0.703515 0.000003
C 1.289069 1.395253 -0.000007
C 2.498412 0.699418 -0.000011
C 2.498412 -0.699418 -0.000005
C 1.289069 -1.395253 0.000005
H -3.385861 1.241832 -0.000043
H -3.385861 -1.241832 -0.000031
H -1.225561 -2.176112 0.883414
H -1.225547 -2.176168 -0.883324
H 1.293414 2.485395 -0.000012
H 3.441326 1.244820 -0.000019
H 3.441326 -1.244820 -0.000009
H 1.293414 -2.485395 0.000010