14

O 2.680475 -1.510030 -0.000381
C 1.806648 -0.603315 0.000373
C 2.162173 0.793534 0.000062
C 1.196808 1.778270 0.000090
C -0.173694 1.459775 0.000166
C -0.524322 0.107135 0.000021
N -1.966074 -0.240864 -0.000195
O -2.797061 0.664082 0.000009
O -2.300367 -1.422689 0.000023
C 0.401645 -0.922023 0.000017
H 3.216718 1.046311 -0.000125
H 1.488703 2.831155 -0.000019
H -0.926588 2.240976 0.000117
H 0.103772 -1.963558 -0.000189