28

O -5.509235 -1.866065 -0.000314
N -5.297503 -0.646859 0.000222
C -3.964346 -0.162268 -0.000376
C -2.865190 -1.065430 -0.001747
C -1.576847 -0.592957 -0.001989
C -1.281251 0.809248 -0.000605
C 0.000000 1.380620 0.000004
H 0.000000 2.479847 -0.000004
C 1.281252 0.809248 0.000621
C 2.417227 1.702569 -0.000145
C 3.705247 1.239998 -0.000347
C 3.964346 -0.162269 0.000401
N 5.297503 -0.646859 -0.000194
O 6.241608 0.153717 -0.001287
O 5.509235 -1.866065 0.000268
C 2.865190 -1.065430 0.001785
C 1.576847 -0.592957 0.002022
C -2.417226 1.702569 0.000146
C -3.705247 1.239999 0.000351
O -6.241609 0.153717 0.001211
H -3.069694 -2.141213 -0.002564
H -0.746796 -1.306537 -0.003292
H 2.226609 2.775927 -0.000655
H 4.554791 1.929870 -0.001144
H 3.069694 -2.141213 0.002614
H 0.746796 -1.306537 0.003335
H -2.226608 2.775928 0.000639
H -4.554791 1.929871 0.001134