16

H -1.240612 1.550939 0.000000
N -0.213668 1.473807 0.000000
C 0.213668 0.741659 1.229994
C -0.213668 -0.741659 1.229994
N 0.213668 -1.473807 0.000000
C -0.213668 -0.741659 -1.229994
C 0.213668 0.741659 -1.229994
H 1.319474 0.821920 1.316762
H -0.208041 1.263511 2.115151
H 0.208041 -1.263511 2.115151
H -1.319474 -0.821920 1.316762
H 1.240612 -1.550939 0.000000
H 0.208041 -1.263511 -2.115151
H -1.319474 -0.821920 -1.316762
H -0.208041 1.263511 -2.115151
H 1.319474 0.821920 -1.316762