56

C 1.075499 -1.980309 2.715782
Si 1.301551 -0.220137 2.058424
C 0.370802 0.929461 3.238304
C 3.143107 0.200224 2.158809
Si 0.577041 0.005443 -0.000241
O -1.117237 0.021612 0.012920
C -2.455038 0.076357 0.020292
C -3.088172 1.260727 0.080452
C -4.583855 1.335759 0.108588
C -5.252063 0.026730 -0.347361
C -4.588462 -1.197936 0.298082
C -3.098492 -1.279565 -0.062733
Si 1.311759 1.891073 -0.847582
C 3.140922 1.744686 -1.307655
C 0.347786 2.355479 -2.408621
C 1.133844 3.340138 0.356597
Si 1.266497 -1.679017 -1.225572
C 0.305545 -3.258839 -0.820687
C 1.039520 -1.360359 -3.077002
C 3.101262 -2.021046 -0.916579
H 0.029898 -2.307616 2.626810
H 1.699616 -2.701089 2.168951
H 1.352364 -2.040587 3.775891
H 0.742303 0.829323 4.265489
H 0.480867 1.983314 2.945749
H -0.703656 0.697506 3.248942
H 3.735279 -0.381787 1.437648
H 3.328132 1.265980 1.961577
H 3.534534 -0.020985 3.160219
H -2.547966 2.199405 0.127909
H -4.912154 1.587079 1.139270
H -4.931486 2.172182 -0.530661
H -6.329390 0.047901 -0.100394
H -5.193094 -0.055922 -1.449665
H -4.703165 -1.148799 1.398536
H -5.101784 -2.123968 -0.021810
H -2.964671 -1.680264 -1.089892
H -2.572268 -1.995246 0.602224
H 3.292621 1.058553 -2.153254
H 3.545069 2.722437 -1.600098
H 3.746000 1.377948 -0.465639
H -0.715912 2.513140 -2.179417
H 0.731880 3.280317 -2.855467
H 0.410970 1.566711 -3.171728
H 1.782190 3.218258 1.235691
H 1.405468 4.287799 -0.125023
H 0.098666 3.435217 0.714463
H -0.761070 -3.144483 -1.058475
H 0.685148 -4.112248 -1.395807
H 0.385072 -3.516603 0.244978
H 1.693853 -0.550973 -3.430855
H 1.275536 -2.256011 -3.664658
H 0.002735 -1.076248 -3.307725
H 3.277279 -2.392298 0.103368
H 3.474750 -2.783545 -1.612251
H 3.715178 -1.119389 -1.056279