27

C 0.291061 2.906555 -0.000379
C -0.228061 1.671228 -0.000157
O 0.614904 0.608690 -0.000128
Si 1.752353 -0.531545 -0.000003
C 2.791098 -0.339875 1.525272
C 0.924099 -2.195481 -0.000248
C 2.791630 -0.339692 -1.524895
C -1.644139 1.319207 0.000072
C -2.110183 0.055927 0.000002
O -3.478140 -0.078157 0.000250
C -3.968251 -1.448495 0.000165
H -0.313974 3.796557 -0.000424
H 1.349299 3.105632 -0.000534
H 2.198532 -0.447978 2.445542
H 3.567243 -1.125579 1.523916
H 3.295747 0.636361 1.563805
H 0.301317 -2.354899 -0.891459
H 1.716645 -2.966291 -0.000184
H 0.301050 -2.355027 0.890753
H 3.296495 0.636450 -1.563002
H 3.567613 -1.125556 -1.523497
H 2.199342 -0.447425 -2.445386
H -2.332917 2.168198 0.000309
H -1.515537 -0.855462 -0.000224
H -3.642384 -1.968054 -0.905734
H -3.642031 -1.968292 0.905800
H -5.057016 -1.307507 0.000398