25

C -2.255799 -0.317840 1.001936
C -1.363792 -0.375592 0.006079
C -1.128339 0.803844 -0.904088
C -0.283698 1.898682 -0.232725
C 1.198047 1.530680 -0.066373
C 1.438086 0.399532 0.945395
C 1.811122 -0.946708 0.308620
C 0.838899 -1.439352 -0.770689
C -0.599046 -1.644282 -0.277310
H -2.843680 0.557576 1.221984
H -2.459010 -1.134276 1.673775
H -0.637408 0.480952 -1.845873
H -2.102926 1.234051 -1.214443
H -0.357582 2.824685 -0.837796
H -0.720094 2.150249 0.754051
H 1.629283 1.263143 -1.050116
H 1.751061 2.434054 0.258828
H 2.246747 0.695825 1.641958
H 0.539513 0.266178 1.580512
H 2.824280 -0.874684 -0.135365
H 1.890626 -1.708338 1.109705
H 0.842244 -0.730650 -1.625327
H 1.215223 -2.399188 -1.178672
H -0.586561 -2.292211 0.623570
H -1.164599 -2.221151 -1.041858