20

O 1.545907 -1.761960 0.086276
C 1.257013 -0.572287 -0.056615
C -0.002168 0.056550 -0.241788
O -0.003124 1.390692 -0.628680
C 0.013259 2.324319 0.490508
C -1.259104 -0.564696 -0.024956
O -2.307497 0.352662 -0.114816
C -3.646846 -0.183332 0.031912
O -1.544624 -1.741217 0.207964
O 2.300870 0.354292 -0.066832
C 3.642427 -0.182309 0.055445
H 0.924978 2.182964 1.074362
H 0.006173 3.296603 -0.008468
H -0.879599 2.184442 1.102490
H -3.846810 -0.909830 -0.760187
H -3.759508 -0.644432 1.016982
H -4.275589 0.707633 -0.070551
H 3.751260 -0.700559 1.012191
H 3.852788 -0.858774 -0.777187
H 4.266556 0.716742 0.012051