30

O -0.594717 -1.604240 -0.484529
C -0.777760 -0.424441 -0.110439
C 0.285238 0.490178 0.220381
H 0.003382 1.482092 0.580008
N 1.622525 0.207863 0.131052
C 2.535416 1.190917 0.500782
C 3.907871 0.963478 0.428677
C 4.398934 -0.266741 -0.019408
C 3.482733 -1.251475 -0.390258
C 2.110470 -1.007254 -0.312926
N -2.101688 0.011262 0.017494
C -2.475234 1.414729 0.333185
C -2.540038 2.284361 -0.921073
C -3.219974 -0.913225 -0.322033
C -3.927765 -1.417663 0.934091
H 2.144913 2.152968 0.853456
H 4.594356 1.761318 0.727684
H 5.471523 -0.450106 -0.076917
H 3.826069 -2.227441 -0.745917
H 1.377774 -1.781864 -0.606963
H -3.460141 1.414335 0.854217
H -1.739559 1.838549 1.057739
H -1.575328 2.325126 -1.441102
H -3.280029 1.913461 -1.640470
H -2.819380 3.314925 -0.669452
H -3.939362 -0.384703 -0.986898
H -2.816856 -1.773810 -0.905947
H -4.731653 -2.117168 0.673141
H -3.242292 -1.943472 1.608515
H -4.380882 -0.601349 1.509454