14

C 0.000000 2.474012 0.852692
C 0.000000 1.269252 -0.073481
C 0.000000 0.000000 0.534709
H 0.000000 0.000000 1.621073
C 0.000000 -1.269252 -0.073481
C 0.000000 -2.474012 0.852692
O 0.000000 -1.527221 -1.293239
O 0.000000 1.527221 -1.293239
H 0.000000 2.210763 1.914661
H 0.879747 3.102166 0.670661
H -0.879747 3.102166 0.670661
H 0.000000 -2.210763 1.914661
H -0.879747 -3.102166 0.670661
H 0.879747 -3.102166 0.670661