14

C 1.596462 1.230366 0.030507
N 0.820679 0.000000 -0.330606
C 1.596537 -1.230320 0.030507
N -0.425229 -0.000039 0.359331
C -1.581161 -0.000057 -0.405630
O -2.668087 0.000021 0.177341
H 2.510701 1.254112 -0.587123
H 1.009507 2.130304 -0.217839
H 1.898108 1.301454 1.087133
H 1.898186 -1.301390 1.087133
H 1.009637 -2.130293 -0.217840
H 2.510777 -1.254010 -0.587123
H -0.456251 -0.000034 1.384507
H -1.475150 0.000027 -1.500967