19

C -4.343920 -0.662255 0.000000
C -2.975483 -1.311500 0.000000
O -2.034630 -0.190665 0.000000
C -0.670313 -0.505825 0.000000
O -0.366067 -1.705747 0.000000
C 0.126351 0.629179 0.000000
H -0.390192 1.586728 0.000000
S 1.751331 0.602182 0.000000
C 2.320270 2.244561 0.000000
O 2.320270 -0.068279 1.214051
O 2.320270 -0.068279 -1.214051
H -5.137890 -1.420812 0.000000
H -4.494022 -0.026580 0.882071
H -4.494022 -0.026580 -0.882071
H -2.783283 -1.916133 0.902211
H -2.783283 -1.916133 -0.902211
H 1.991631 2.827748 0.873977
H 3.417952 2.327897 0.000000
H 1.991631 2.827748 -0.873977