36

O 0.000049 -1.563778 0.000085
C 0.000017 -0.298596 0.000055
C -1.247943 0.448176 -0.007143
C -2.569553 -0.310024 -0.000003
C -3.803519 0.623651 -0.055657
C -2.640651 -1.245352 -1.228511
C -2.668243 -1.141439 1.300223
C -1.207895 1.832485 -0.007002
C -0.000010 2.539791 0.000021
C 1.207890 1.832505 0.007040
C 1.247959 0.448199 0.007187
C 2.569554 -0.310013 -0.000021
C 3.803559 0.623623 0.055457
C 2.640712 -1.245272 1.228533
C 2.668093 -1.141510 -1.300207
H -3.808473 1.231207 -0.964668
H -4.730717 0.043218 -0.048083
H -3.837989 1.300952 0.802140
H -1.792179 -1.942310 -1.216295
H -3.561042 -1.831663 -1.238558
H -2.589345 -0.678747 -2.160182
H -2.704775 -0.497046 2.181009
H -3.556422 -1.775590 1.308943
H -1.786448 -1.786310 1.397691
H -2.131429 2.412876 -0.010918
H -0.000018 3.619740 0.000020
H 2.131411 2.412918 0.010935
H 3.808627 1.231237 0.964430
H 4.730736 0.043156 0.047833
H 3.837975 1.300866 -0.802387
H 1.792167 -1.942145 1.216458
H 3.561048 -1.831673 1.238508
H 2.589575 -0.678602 2.160172
H 2.704688 -0.497168 -2.181027
H 3.556186 -1.775778 -1.308915
H 1.786203 -1.786258 -1.397619