19

Cl 3.389039 1.706938 0.374748
C 2.787820 0.513984 -0.675825
H 3.012523 0.668675 -1.713642
S 1.986330 -0.746502 -0.132974
C 0.243027 -0.417106 -0.094206
C -0.643987 -1.452596 0.203478
C -2.019482 -1.207417 0.251919
C -2.482054 0.092579 -0.005186
N -3.930076 0.363395 0.044460
O -4.695932 -0.572648 0.242111
O -4.318428 1.514671 -0.113652
C -1.598895 1.139098 -0.308239
C -0.226342 0.870105 -0.349790
O 2.112933 -1.952008 -1.011486
O 2.307166 -1.098691 1.287551
H -0.275572 -2.465308 0.398776
H -2.723863 -2.011255 0.486479
H -1.977733 2.145971 -0.509057
H 0.473810 1.681769 -0.586003