15

C -1.231371 0.720670 -0.192665
C -1.204633 -0.763201 0.197559
O 0.000000 -1.399812 -0.287578
C 1.204633 -0.763201 0.197558
C 1.231371 0.720671 -0.192664
N 0.000000 1.393285 0.331183
H -1.343839 0.821005 -1.294142
H -2.115171 1.218117 0.264846
H -1.263288 -0.905457 1.290553
H -1.999839 -1.342171 -0.304572
H 1.263288 -0.905457 1.290553
H 1.999839 -1.342171 -0.304573
H 2.115171 1.218117 0.264846
H 1.343839 0.821005 -1.294142
H 0.000000 2.372880 0.010243