19

C -4.132134 -0.011003 -0.020944
C -2.641889 -0.004577 -0.002200
C -1.931224 -1.216404 0.055595
C -0.535600 -1.211787 0.058121
C 0.165532 -0.003568 0.001453
C -0.537357 1.203138 -0.056382
C -1.933046 1.207849 -0.057408
S 1.903775 0.008186 0.009378
N 2.367163 -1.126518 -1.012634
H 3.354788 -1.190266 -1.236647
O 2.348944 1.393856 -0.376649
O 2.333664 -0.239514 1.429740
H -4.556010 -0.778871 0.642813
H -4.568730 0.950969 0.282860
H -4.512179 -0.225530 -1.032879
H -2.470974 -2.161470 0.096591
H 0.002482 -2.162943 0.099128
H 0.005350 2.152974 -0.104351
H -2.471834 2.153157 -0.103268