24

C 2.050687 -1.634486 1.111437
Si 2.622540 -0.056315 0.313974
H 2.683859 0.992149 1.338533
C 4.309346 -0.238520 -0.449961
C 1.403734 0.515668 -1.017246
C 0.028560 0.701881 -0.497150
C -0.366933 1.930466 0.074605
C -1.661307 2.108391 0.561820
C -2.601138 1.072253 0.489755
C -2.195970 -0.132316 -0.081545
Cl -3.350672 -1.428195 -0.187332
C -0.912791 -0.345444 -0.575672
H 2.736279 -1.935498 1.921413
H 1.048529 -1.512639 1.555884
H 1.993032 -2.475693 0.405500
H 4.335740 -0.995956 -1.247179
H 4.657687 0.710199 -0.889972
H 5.050909 -0.540525 0.308896
H 1.819089 1.461071 -1.445569
H 1.439440 -0.221329 -1.853484
H 0.349717 2.749158 0.138118
H -1.949349 3.064100 1.003282
H -3.610874 1.208376 0.869294
H -0.633334 -1.303053 -1.011965