48

C -4.092601 3.772592 0.309647
O -3.033622 2.824483 0.605076
C -3.146103 1.545536 0.113316
C -4.231767 1.085375 -0.693412
C -4.237705 -0.215971 -1.120395
C -3.167515 -1.104481 -0.764935
N -3.240303 -2.417024 -1.223303
C -2.259509 -3.251204 -0.895858
C -1.131360 -2.859769 -0.103736
C -1.036866 -1.567342 0.352919
C 0.153150 -1.136937 1.183426
H -0.060290 -0.210150 1.770683
O 0.338948 -2.203688 2.140849
C 1.433100 -0.982636 0.319759
H 1.662909 -1.986337 -0.125870
C 1.271938 0.058645 -0.814498
C 2.467973 1.036763 -0.764502
H 2.419606 1.747053 -1.616464
C 2.406583 1.802274 0.574594
C 2.445080 0.780532 1.732277
N 2.589112 -0.628141 1.224548
C 3.852129 -0.711689 0.412482
C 3.779607 0.201070 -0.846780
H 3.715330 -0.450350 -1.752787
C 4.989756 1.087790 -0.945465
C 5.818552 1.087480 -1.987213
C -2.084602 -0.631201 0.033740
C -2.094861 0.718911 0.473713
H -3.737862 4.673612 0.828786
H -4.162621 3.944360 -0.768483
H -5.041730 3.429835 0.732331
H -5.042315 1.762393 -0.961997
H -5.053103 -0.605487 -1.736462
H -2.331737 -4.285753 -1.259120
H -0.364809 -3.598861 0.136620
H 1.233861 -2.125265 2.555739
H 1.221272 -0.447498 -1.794439
H 0.325185 0.621448 -0.725035
H 3.246258 2.514833 0.652553
H 1.488817 2.414193 0.623321
H 3.293171 0.987355 2.416831
H 1.524366 0.843834 2.348115
H 4.705586 -0.436568 1.065714
H 4.014997 -1.767698 0.117361
H 5.148503 1.745976 -0.087750
H 6.687700 1.726867 -2.052199
H 5.699948 0.454820 -2.855339
H -1.287187 1.102748 1.097300