37

C 3.728552 -1.051838 1.425270
C 3.691152 -0.590933 -0.028855
N 2.477212 0.196603 -0.409080
C 2.458137 1.554631 0.220899
C 1.238977 2.336390 -0.286430
N 0.000000 1.611288 0.140727
C -1.238976 2.336390 -0.286429
C -2.458137 1.554631 0.220899
N -2.477212 0.196603 -0.409080
C -3.691152 -0.590933 -0.028855
C -3.728552 -1.051838 1.425270
C -1.226085 -0.486172 -0.379782
C -1.161917 -1.881671 -0.625903
N 0.000000 -2.559715 -0.749088
C 1.161918 -1.881671 -0.625903
C 1.226085 -0.486172 -0.379782
C 0.000000 0.225368 -0.245208
H 2.851737 -1.655639 1.689796
H 4.615792 -1.669048 1.617416
H 3.765950 -0.209596 2.126673
H 4.579807 0.042577 -0.255561
H 3.759015 -1.468161 -0.714255
H 2.449067 1.500404 1.332980
H 3.394015 2.084497 -0.068052
H 1.224022 3.351535 0.170805
H 1.294819 2.480434 -1.388289
H -1.224022 3.351535 0.170806
H -1.294819 2.480434 -1.388289
H -2.449067 1.500404 1.332980
H -3.394015 2.084497 -0.068052
H -4.579807 0.042577 -0.255561
H -3.759015 -1.468161 -0.714256
H -4.615793 -1.669047 1.617416
H -2.851737 -1.655639 1.689796
H -3.765950 -0.209596 2.126673
H -2.078709 -2.472279 -0.734264
H 2.078709 -2.472279 -0.734263