70

C -1.405186 7.129338 0.167275
C -1.024874 5.918571 1.016266
C -0.973196 4.631202 0.181417
C -0.603035 3.416065 1.041784
C -0.536519 2.129052 0.200311
C -0.197275 0.916636 1.070554
Si 0.001824 -0.720722 0.155341
C -1.502310 -1.085329 -0.926935
C -2.854976 -1.122433 -0.212394
C -3.999210 -1.395278 -1.205048
C -5.360922 -1.426054 -0.499048
C -6.502309 -1.699878 -1.488679
C -7.860750 -1.730703 -0.792263
C 1.484884 -0.677015 -1.008613
C 2.838618 -0.367966 -0.365245
C 3.969344 -0.398244 -1.408876
C 5.330290 -0.089038 -0.771614
C 6.460488 -0.125397 -1.810016
C 7.817609 0.181458 -1.181121
C 0.150145 -2.075538 1.481093
C 0.328289 -3.515589 0.917517
C 1.646936 -4.057339 1.530892
C 2.134900 -2.952924 2.434410
C 1.325012 -1.883583 2.405058
H -1.440284 8.043349 0.770802
H -0.685823 7.299424 -0.641946
H -2.391005 7.006167 -0.295878
H -0.043831 6.092938 1.500016
H -1.749627 5.800415 1.845554
H -1.950688 4.462590 -0.309985
H -0.243481 4.747360 -0.642773
H 0.369210 3.587699 1.541672
H -1.339233 3.292883 1.858698
H -1.506941 1.976263 -0.314985
H 0.216007 2.256563 -0.604319
H 0.749726 1.098826 1.629851
H -0.978933 0.778142 1.852056
H -1.517569 -0.312502 -1.730676
H -1.320779 -2.050317 -1.452750
H -2.859384 -1.903438 0.574784
H -3.044657 -0.163220 0.311617
H -4.001134 -0.622119 -1.996823
H -3.821861 -2.354673 -1.727316
H -5.358444 -2.198113 0.294185
H -5.538160 -0.465863 0.022502
H -6.505620 -0.927243 -2.282361
H -6.326426 -2.661703 -2.009226
H -8.669139 -1.926444 -1.505794
H -7.905589 -2.512887 -0.025722
H -8.084517 -0.778551 -0.297628
H 1.527477 -1.658600 -1.534592
H 1.259793 0.072233 -1.802623
H 2.818955 0.625777 0.126105
H 3.061904 -1.098220 0.440602
H 3.998596 -1.388796 -1.901390
H 3.755351 0.328270 -2.215503
H 5.301842 0.903251 -0.281857
H 5.541346 -0.813224 0.038502
H 6.490149 -1.118663 -2.299377
H 6.250587 0.600192 -2.620146
H 8.617735 0.155709 -1.929480
H 7.834747 1.175153 -0.718805
H 8.076252 -0.543588 -0.400950
H -0.806012 -2.013138 2.069381
H -0.527914 -4.149219 1.200741
H 0.375477 -3.540689 -0.184637
H 1.481787 -4.993398 2.090479
H 2.389587 -4.289044 0.747839
H 3.037309 -3.078289 3.005672
H 1.441961 -0.971243 2.971352