47

C -2.719593 -0.331977 -0.003642
O -1.392279 -0.179589 0.002023
Si 0.203769 -0.001659 -0.006226
C 0.621490 1.469260 -1.064034
C 1.665293 1.406614 -2.002613
C 1.994926 2.527365 -2.774470
C 1.283507 3.720142 -2.618753
C 0.239868 3.792412 -1.690216
C -0.089630 2.674060 -0.917434
C 0.771936 0.263073 1.743097
C 0.535736 -0.731860 2.709380
C 0.976169 -0.561662 4.026054
C 1.657243 0.603823 4.392554
C 1.895506 1.599152 3.440865
C 1.453915 1.431084 2.122881
C 0.975467 -1.545140 -0.696787
C 0.265562 -2.436259 -1.517490
C 0.892294 -3.574228 -2.039286
C 2.234194 -3.832028 -1.745104
C 2.950253 -2.951525 -0.927461
C 2.325481 -1.814277 -0.404925
C -3.377927 -1.503756 -0.039367
C -4.861724 -1.241695 -0.033492
C -5.016265 0.305750 0.012109
C -3.587229 0.900526 0.030943
H 2.233647 0.483305 -2.147029
H 2.806737 2.468245 -3.497976
H 1.540383 4.591841 -3.219492
H -0.316462 4.720637 -1.569132
H -0.909462 2.752342 -0.198329
H 0.006211 -1.651383 2.444781
H 0.788797 -1.337536 4.766819
H 2.000361 0.735231 5.418100
H 2.424505 2.507826 3.724239
H 1.648755 2.225849 1.397371
H -0.785099 -2.253551 -1.757933
H 0.333178 -4.259327 -2.674731
H 2.721689 -4.717605 -2.151089
H 3.995544 -3.152052 -0.696930
H 2.903646 -1.141286 0.235864
H -2.975976 -2.497806 -0.067431
H -5.344662 -1.665966 -0.931852
H -5.347004 -1.718313 0.836918
H -5.581791 0.668983 -0.861183
H -5.583206 0.616755 0.904465
H -3.397621 1.509989 0.932500
H -3.395536 1.560640 -0.833831