22

C 3.469778 -0.009424 -0.374641
C 2.167578 0.312538 0.354567
C 0.990826 -0.502109 -0.199991
C -0.322440 -0.202168 0.537996
C -0.894349 1.158386 0.185806
C -2.154064 1.081126 -0.259469
C -2.657888 -0.339893 -0.302944
C -1.456968 -1.201659 0.158043
H 3.738109 -1.067858 -0.279081
H 3.400199 0.211206 -1.446126
H 4.304717 0.577057 0.025472
H 2.286006 0.115176 1.438207
H 1.949871 1.395517 0.271019
H 0.869457 -0.302269 -1.281803
H 1.219192 -1.583170 -0.122485
H -0.143646 -0.247951 1.638393
H -0.294379 2.043515 0.310068
H -2.794127 1.891097 -0.566939
H -3.531751 -0.473923 0.358681
H -2.993131 -0.617180 -1.317483
H -1.140464 -1.888685 -0.642446
H -1.724894 -1.833313 1.018319