45

C -2.459229 -0.891087 0.741205
O -1.213048 -0.575840 0.501114
Si 0.250269 -0.009245 0.010022
C 0.001910 1.639972 -0.802231
C -1.261162 2.096024 -1.212309
C -1.396998 3.343556 -1.832631
C -0.272632 4.145479 -2.047782
C 0.990115 3.700282 -1.642450
C 1.128509 2.454285 -1.022394
C 1.307019 0.169782 1.526139
C 2.613751 -0.345310 1.565577
C 3.411567 -0.168296 2.702079
C 2.911114 0.522212 3.809652
C 1.611260 1.037572 3.780970
C 0.812563 0.863001 2.645770
C 0.951809 -1.257024 -1.171482
C 1.139825 -2.588574 -0.756977
C 1.672081 -3.536532 -1.636606
C 2.021949 -3.165749 -2.939403
C 1.837500 -1.846388 -3.361336
C 1.303048 -0.895924 -2.482905
C -3.026914 -1.778043 1.581288
C -4.518945 -1.699151 1.413834
C -4.707703 -0.611818 0.330910
O -3.349889 -0.143380 -0.046473
H -2.155094 1.482231 -1.050109
H -2.380578 3.689258 -2.147385
H -0.378889 5.116974 -2.529534
H 1.866354 4.325277 -1.808908
H 2.125663 2.126529 -0.711216
H 3.025866 -0.891339 0.712094
H 4.423746 -0.569907 2.722930
H 3.532460 0.658763 4.694315
H 1.220032 1.574864 4.643801
H -0.201016 1.273809 2.645244
H 0.872436 -2.900229 0.256804
H 1.813504 -4.565184 -1.307757
H 2.436207 -3.905356 -3.624070
H 2.107930 -1.556172 -4.375765
H 1.163884 0.129512 -2.838024
H -2.551509 -2.446458 2.268288
H -4.947328 -2.669633 1.101184
H -5.023282 -1.429072 2.360278
H -5.146733 -0.981178 -0.606963
H -5.226532 0.290874 0.683842