34

C 0.184268 -4.471210 0.000000
C 0.956116 -3.153435 0.000000
C 0.013878 -1.941180 0.000000
C 0.799970 -0.625996 0.000000
C 0.000000 0.653092 0.000000
C 0.774018 1.840337 0.000000
O 2.149668 1.562666 0.000000
C 3.054063 2.713058 0.000000
C 4.441559 2.105384 0.000000
O 0.466112 3.036971 0.000000
C -1.408100 0.738327 0.000000
O -2.074639 -0.489600 0.000000
C -3.539275 -0.435444 0.000000
C -3.970293 -1.887569 0.000000
O -2.141907 1.739215 0.000000
H -0.459342 -4.563973 0.882120
H -0.459342 -4.563973 -0.882120
H 0.863863 -5.330808 0.000000
H 1.624614 -3.112481 0.881978
H 1.624614 -3.112481 -0.881978
H -0.660343 -1.982025 -0.876722
H -0.660343 -1.982025 0.876722
H 1.475652 -0.611825 0.883203
H 1.475652 -0.611825 -0.883203
H 2.843357 3.312196 -0.901591
H 2.843357 3.312196 0.901591
H 4.611005 1.474721 -0.881998
H 5.212124 2.887799 0.000000
H 4.611005 1.474721 0.881998
H -3.861069 0.111972 0.901401
H -3.861069 0.111972 -0.901401
H -3.595058 -2.423627 -0.881108
H -3.595058 -2.423627 0.881108
H -5.064728 -1.973103 0.000000