32

C -5.193905 -0.831236 0.328314
N -4.250191 0.314071 0.459976
C -4.856178 1.579252 -0.043306
C -2.894423 0.073219 0.107755
C -2.362131 -1.239433 0.118511
C -1.000654 -1.446851 -0.076895
C -0.128892 -0.367269 -0.279471
C -0.650369 0.933735 -0.298518
C -2.011089 1.158144 -0.118354
C 1.334158 -0.624553 -0.485770
O 1.666031 -1.570980 -1.225164
C 2.254959 0.205240 0.175547
S 3.863951 -0.072807 -0.066539
C 4.558680 1.514353 -0.517538
C 4.572485 -0.263117 1.566081
H -6.177530 -0.548861 0.741185
H -5.344765 -1.163986 -0.711347
H -4.832927 -1.690573 0.920071
H -4.240723 2.444657 0.259272
H -4.974076 1.606373 -1.138742
H -5.852305 1.717454 0.410610
H -3.011478 -2.097791 0.282494
H -0.603352 -2.464511 -0.074207
H 0.016844 1.782781 -0.464824
H -2.390317 2.179076 -0.144962
H 1.892509 0.991263 0.822957
H 4.330890 2.329806 0.180997
H 5.653744 1.454862 -0.601239
H 4.180701 1.827905 -1.502993
H 4.201084 -1.186658 2.036180
H 5.667428 -0.352693 1.511432
H 4.348299 0.556255 2.261087