18

N -4.984224 -1.056246 0.000492
C -4.144642 -0.241536 -0.000182
C -3.170586 0.742782 -0.000108
H -3.525261 1.769146 -0.000053
C -1.797897 0.489219 -0.000080
C -0.858314 1.575774 -0.000001
C 0.498515 1.345645 0.000014
C 1.012579 0.027037 -0.000066
C 2.472449 -0.178264 -0.000014
F 3.134775 0.357197 1.051990
F 2.922956 -1.449307 -0.000927
F 3.135118 0.358822 -1.050970
C 0.106742 -1.055342 -0.000115
C -1.254508 -0.838113 -0.000127
H -1.240657 2.592315 0.000052
H 1.189951 2.191358 0.000094
H 0.481775 -2.080992 -0.000139
H -1.937915 -1.681727 -0.000172