22

C -4.336159 0.277065 -0.101039
C -2.868962 0.041944 -0.024616
C -2.221966 -0.783028 -0.962442
C -0.847816 -0.995555 -0.878935
C -0.094424 -0.385186 0.133937
C -0.741111 0.428962 1.077305
C -2.113187 0.646053 0.998853
S 1.585279 -0.660781 0.250165
O 2.055970 -0.340461 1.595656
O 1.918305 -1.996716 -0.242843
C 2.368992 0.479575 -0.893137
N 1.890027 1.806297 -0.684278
C 1.533486 2.905706 -0.550237
H -4.848809 -0.069835 0.811102
H -4.570704 1.349357 -0.200297
H -4.816518 -0.232968 -0.948180
H -2.796534 -1.261256 -1.756162
H -0.360372 -1.648546 -1.611741
H -0.165612 0.894919 1.886125
H -2.606245 1.283248 1.733704
H 3.488043 0.448403 -0.786289
H 2.214776 0.169294 -1.961593