28

O 1.530666 2.385670 0.064056
C 1.262240 1.173497 0.023825
C 2.448887 0.226820 0.002652
C 2.938684 -0.247644 -1.219439
C 4.040557 -1.108299 -1.239449
C 4.650095 -1.495286 -0.041343
C 4.157100 -1.020845 1.178623
C 3.056430 -0.158448 1.202689
C 0.000004 0.556088 0.000129
H 0.000007 -0.531837 -0.000061
C -1.262237 1.173494 -0.023359
C -2.448881 0.226806 -0.002546
C -2.938459 -0.248424 1.219336
C -4.040339 -1.109077 1.239005
C -4.650105 -1.495296 0.040766
C -4.157325 -1.020095 -1.178991
C -3.056649 -0.157697 -1.202714
O -1.530667 2.385679 -0.063212
H 2.463161 0.050883 -2.153154
H 4.424033 -1.478079 -2.190219
H 5.508461 -2.166256 -0.058508
H 4.631099 -1.322949 2.112320
H 2.673520 0.210174 2.153719
H -2.462757 0.049507 2.153151
H -4.423647 -1.479452 2.189611
H -5.508480 -2.166261 0.057665
H -4.631498 -1.321602 -2.112792
H -2.673909 0.211523 -2.153581