36

O 2.600848 1.590289 -0.568272
C 1.440713 1.239947 -0.353777
C 0.841634 -0.042409 -0.332677
C -0.620627 -0.161816 -0.266982
C -1.416142 0.238093 -1.362175
C -2.801041 0.124801 -1.315941
C -3.398213 -0.404924 -0.155057
O -4.778542 -0.462132 -0.240695
C -5.501220 -1.030753 0.879859
C -2.636719 -0.811951 0.943734
C -1.245496 -0.681590 0.877449
C 1.580587 -1.249522 -0.379996
O 2.959028 -1.065365 -0.251050
C 3.815218 -2.244976 -0.258595
C 3.961935 -2.775176 1.153807
O 1.176448 -2.405646 -0.527313
O 0.503708 2.253407 -0.107784
C 0.975112 3.630592 -0.067187
C 1.462182 3.965264 1.329100
H -0.935361 0.645081 -2.251177
H -3.423488 0.433711 -2.152004
H -6.543339 -0.963205 0.542022
H -5.208277 -2.073397 1.034859
H -5.343546 -0.430133 1.780455
H -3.100151 -1.220227 1.837503
H -0.639108 -0.990488 1.728075
H 3.398434 -2.994975 -0.952626
H 4.757267 -1.832475 -0.663068
H 3.001164 -3.113724 1.560940
H 4.653997 -3.626659 1.188428
H 4.348438 -2.010383 1.838439
H 1.757385 3.771538 -0.833157
H 0.059823 4.183917 -0.346395
H 0.700144 3.749967 2.088066
H 2.354785 3.385579 1.595395
H 1.722373 5.027955 1.415792