11

O -2.284314 -0.044781 0.000042
C -1.028585 -0.007546 -0.000111
N -0.339808 -1.232513 -0.000008
C 1.014444 -1.211841 0.000033
C 1.776025 -0.039048 0.000025
C 1.095485 1.193225 0.000008
C -0.282088 1.227903 -0.000030
H 1.505122 -2.193233 0.000076
H 2.856189 -0.076314 0.000065
H 1.670604 2.120513 0.000042
H -0.830430 2.158718 -0.000011