14

C -2.535242 0.673959 0.000072
N -1.073901 0.431664 0.000026
C -0.200364 1.512567 0.000027
C 1.147972 1.307658 -0.000001
C 1.690344 -0.045717 -0.000076
O 2.908721 -0.288232 -0.000035
N 0.798386 -1.122610 -0.000041
C -0.552883 -0.934003 0.000033
O -1.384526 -1.848284 -0.000034
H -2.845952 1.237743 -0.896020
H -3.077790 -0.290528 -0.000186
H -2.845964 1.237277 0.896455
H -0.639222 2.520226 0.000061
H 1.845016 2.137243 0.000010