14

H 1.092716 -1.783104 -0.000082
C 1.327327 -0.724880 -0.000033
C 0.285347 0.205540 0.000021
O -0.963989 -0.428596 -0.000005
C -2.144149 0.436935 0.000027
C -3.318225 -0.519570 -0.000010
O 0.294743 1.442813 0.000064
C 2.656503 -0.354683 -0.000035
N 3.788192 -0.059049 -0.000036
H -2.099925 1.070130 0.901934
H -2.099925 1.070198 -0.901832
H -3.313286 -1.172679 -0.882060
H -3.313300 -1.172731 0.882003
H -4.270474 0.027745 -0.000001