17

C 0.128163 0.754497 -1.478102
C -0.128163 -0.754497 -1.478102
C -0.893598 -1.220517 -0.237781
O 0.000000 -1.186409 0.901888
C 0.000000 0.000000 1.686984
O 0.000000 1.186409 0.901888
C 0.893598 1.220517 -0.237781
H 0.694154 1.039757 -2.387551
H -0.835180 1.300083 -1.537954
H -0.694154 -1.039757 -2.387551
H 0.835180 -1.300083 -1.537954
H -1.792324 -0.614984 -0.039712
H -1.162193 -2.291524 -0.293871
H -0.927028 0.096093 2.278331
H 0.927028 -0.096093 2.278331
H 1.792324 0.614984 -0.039712
H 1.162193 2.291524 -0.293871