24

C -3.744700 0.092147 0.312821
C -2.439905 0.262951 -0.390762
C -1.479778 -0.672400 -0.405310
C -0.177550 -0.514549 -1.104837
Si 1.219187 0.033714 0.047197
C 1.390953 -1.176439 1.459400
C 2.798029 0.064380 -0.953502
C 0.860473 1.741540 0.711973
H -4.587390 0.190950 -0.385339
H -3.844558 -0.884022 0.804359
H -3.877564 0.858875 1.089121
H -2.316264 1.220165 -0.895186
H -1.618082 -1.628237 0.107985
H 0.137875 -1.472453 -1.579891
H -0.231137 0.230889 -1.932235
H 1.610666 -2.190213 1.093554
H 2.203370 -0.880962 2.139733
H 0.461513 -1.226028 2.046990
H 2.719911 0.756296 -1.805092
H 3.646391 0.391737 -0.333380
H 3.040331 -0.931910 -1.351810
H -0.104232 1.754717 1.242548
H 1.638824 2.068326 1.416867
H 0.806595 2.484100 -0.097670