15

O -2.043691 -1.739212 -0.000045
C -1.883756 -0.527499 -0.000061
O -2.908285 0.386303 -0.000003
O -4.118447 -0.198991 0.000010
C -0.557076 0.156163 -0.000020
C 0.593141 -0.649153 -0.000017
C 1.840728 -0.027269 0.000010
Cl 3.259645 -1.012455 0.000009
C 1.978095 1.364085 0.000039
C 0.823048 2.150979 0.000042
C -0.442292 1.552893 0.000014
H 0.501716 -1.738516 -0.000032
H 2.966879 1.827582 0.000059
H 0.909774 3.240218 0.000067
H -1.340274 2.176450 0.000017