23

O -1.181925 1.465483 0.000081
C -1.190996 0.233334 -0.000046
C -0.122335 -0.699060 -0.000066
H -0.389073 -1.756592 -0.000138
N 1.215154 -0.358940 0.000003
C 2.161447 -1.373001 -0.000020
C 3.524795 -1.080638 0.000042
C 3.962077 0.247594 0.000128
C 3.006612 1.264179 0.000151
C 1.644345 0.953033 0.000089
O -2.408610 -0.429402 -0.000067
C -3.616444 0.409682 0.000025
C -4.754915 -0.586215 -0.000261
H 1.809656 -2.413311 -0.000088
H 4.245112 -1.905137 0.000022
H 5.027848 0.482173 0.000176
H 3.308858 2.316308 0.000218
H 0.882739 1.753451 0.000107
H -3.586213 1.041660 0.903565
H -3.586104 1.042048 -0.903239
H -4.728099 -1.238994 -0.882855
H -4.728198 -1.239393 0.882041
H -5.725829 -0.071713 -0.000199