16

C 1.264855 -0.863038 -0.189010
C 0.000000 -0.011229 0.015283
C -0.000001 1.167347 -0.982018
C -1.264854 -0.863040 -0.189009
N 0.000000 0.483914 1.435799
H 2.180117 -0.275034 -0.062362
H 1.310154 -1.692567 0.524700
H 1.291786 -1.295821 -1.194752
H -0.000001 0.811526 -2.017837
H -0.882736 1.803542 -0.862582
H 0.882733 1.803544 -0.862581
H -1.310150 -1.692570 0.524700
H -2.180116 -0.275038 -0.062359
H -1.291786 -1.295821 -1.194752
H 0.814178 1.070297 1.612874
H -0.814177 1.070298 1.612874