31

Cl -4.873137 -2.224433 0.000132
C -3.733962 -0.923107 0.000065
C -3.292723 -0.414942 1.223553
C -2.379284 0.642391 1.218690
C -1.924555 1.169489 -0.000042
C -2.379285 0.642266 -1.218721
C -3.292725 -0.415065 -1.223475
C -0.994630 2.326075 -0.000103
C -1.415215 3.596149 -0.000100
N 0.417611 2.054756 -0.000186
C 0.989153 0.789334 -0.000065
O 0.474777 -0.305768 0.000080
O 2.372518 1.014365 -0.000086
C 3.320820 -0.018245 -0.000028
C 3.042240 -1.383641 -0.000313
C 4.126642 -2.270389 -0.000263
C 5.438888 -1.792213 0.000058
C 5.687101 -0.412162 0.000339
C 4.629076 0.495280 0.000303
H -3.652416 -0.831085 2.166287
H -2.021690 1.056938 2.163791
H -2.021692 1.056718 -2.163864
H -3.652421 -0.831304 -2.166166
H -0.768528 4.461773 -0.000142
H -2.463985 3.861942 -0.000056
H 1.049842 2.871576 -0.000280
H 2.018322 -1.759509 -0.000564
H 3.937603 -3.345792 -0.000481
H 6.274367 -2.492015 0.000092
H 6.714995 -0.043847 0.000590
H 4.798043 1.570571 0.000519