46

C -0.236027 -2.768871 -0.253074
C 0.183665 -1.523312 -0.012918
N -0.634281 -0.365355 -0.463682
O -1.965841 -0.667380 -0.239534
Si -3.522916 -0.862031 0.081877
C -3.726735 -1.649431 1.751848
C -4.378045 0.786013 0.053574
C -4.224893 -1.970789 -1.235825
O -0.369489 0.698158 0.388690
Si -0.052888 2.348329 -0.074875
C -1.413435 3.025879 -1.128993
C 0.015884 3.133934 1.604331
C 1.576024 2.435493 -0.951774
C 1.540262 -1.201011 0.553447
C 2.579513 -1.096867 -0.569632
C 3.870002 -0.536882 -0.046471
O 4.868754 -1.460375 -0.241180
C 6.211002 -1.102381 0.189432
O 4.087745 0.540221 0.465093
H 0.374943 -3.642281 -0.066965
H -1.214497 -3.009201 -0.654659
H -3.312299 -1.020162 2.552903
H -4.805613 -1.783036 1.944172
H -3.243888 -2.634646 1.811265
H -4.291010 1.278023 -0.925838
H -5.448660 0.637472 0.273153
H -3.961630 1.467348 0.810859
H -3.763730 -2.968329 -1.226736
H -5.306076 -2.089597 -1.047655
H -4.095677 -1.548393 -2.242426
H -2.386719 2.986612 -0.614027
H -1.202696 4.079162 -1.382129
H -1.513651 2.463077 -2.071050
H 0.811123 2.699423 2.229754
H 0.222781 4.212579 1.491006
H -0.935918 3.023978 2.147169
H 1.537441 1.950436 -1.938711
H 1.851063 3.493818 -1.106608
H 2.384917 1.960331 -0.368921
H 1.503448 -0.249655 1.137858
H 1.839861 -1.982370 1.284634
H 2.736199 -2.088820 -1.049451
H 2.207055 -0.428785 -1.383290
H 6.537753 -0.195351 -0.327752
H 6.222758 -0.962294 1.274432
H 6.801294 -1.975654 -0.111482