27

O -0.286101 -2.371106 -0.581847
C -0.651114 -1.221347 -0.375214
C 0.067263 0.000297 -0.267875
C -0.650892 1.222321 -0.372094
O -2.063988 1.161754 -0.298910
C -2.715405 -0.000208 0.255997
C -2.579379 -0.002580 1.764413
C -4.126070 0.000868 -0.290913
O -2.064241 -1.160546 -0.302538
O -0.285641 2.372514 -0.575886
C 1.517003 0.000002 -0.091531
C 2.244677 1.207125 0.005685
C 3.625659 1.203516 0.196853
C 4.328515 -0.000502 0.296774
C 3.624572 -1.204284 0.201691
C 2.243602 -1.207399 0.010481
H -3.056138 0.880194 2.212295
H -3.055086 -0.887355 2.209448
H -1.530514 -0.002468 2.089412
H -4.139289 -0.000804 -1.389460
H -4.685060 -0.884699 0.042414
H -4.682494 0.889101 0.039659
H 1.727657 2.164762 -0.069181
H 4.160989 2.150420 0.269446
H 5.404292 -0.000687 0.446515
H 4.159044 -2.151371 0.278115
H 1.725789 -2.164864 -0.060819