28

C 5.277720 -1.232226 0.210779
O 4.598220 0.045243 0.334460
C 3.240619 0.081217 0.120392
C 2.698413 1.376446 0.262732
C 1.332889 1.549042 0.071220
C 0.509683 0.453137 -0.243872
C 1.069415 -0.822068 -0.380124
C 2.441367 -1.022249 -0.204363
C -0.963404 0.677100 -0.444615
O -1.317615 1.656759 -1.125907
C -1.854932 -0.224207 0.157219
S -3.472461 -0.004734 -0.095503
C -4.097052 -1.617444 -0.556408
C -4.202528 0.155264 1.529917
H 4.892696 -1.941502 0.949465
H 5.183103 -1.616137 -0.809388
H 6.318026 -0.960688 0.433879
H 3.347692 2.211165 0.515645
H 0.890460 2.543627 0.165883
H 0.432029 -1.673738 -0.630901
H 2.863786 -2.016822 -0.319757
H -1.467963 -1.027869 0.768228
H -3.843025 -2.425178 0.142313
H -5.192983 -1.603010 -0.650712
H -3.697383 -1.913156 -1.539060
H -3.867844 1.089245 2.007150
H -5.299398 0.207970 1.464688
H -3.957797 -0.658258 2.224927