36

C -5.772954 0.000748 0.133358
C -4.424437 -0.001281 -0.560281
O -3.445913 -0.001490 0.519597
C -2.076257 -0.000739 0.145522
O -1.862240 -0.000524 -1.080569
C -1.266359 -0.000319 1.250637
H -1.701349 -0.000289 2.239763
P 0.510895 0.000068 1.203464
O 1.142916 0.000181 2.607445
C 1.133566 -1.456871 0.224190
C 2.112094 -2.255582 0.813645
C 2.613869 -3.358459 0.110702
C 2.132837 -3.647179 -1.170431
C 1.150205 -2.837878 -1.750590
C 0.645619 -1.735209 -1.050111
C 1.133021 1.457257 0.224210
C 2.111353 2.256257 0.813595
C 2.612702 3.359324 0.110644
C 2.131445 3.647943 -1.170428
C 1.149020 2.838344 -1.750522
C 0.644859 1.735486 -1.050035
H -5.901588 -0.879310 0.775650
H -5.901157 0.883843 0.771537
H -6.591048 -0.000752 -0.598277
H -4.257596 -0.902615 -1.173305
H -4.255743 0.898524 -1.175044
H 2.496793 -2.040983 1.814665
H 3.377917 -3.989885 0.561387
H 2.524290 -4.504854 -1.717808
H 0.777361 -3.065481 -2.748023
H -0.131838 -1.113510 -1.514572
H 2.496223 2.041741 1.814567
H 3.376590 3.990981 0.561278
H 2.522565 4.505765 -1.717812
H 0.776010 3.065860 -2.747913
H -0.132442 1.113553 -1.514453