21

C 1.732498 -0.897516 -1.527823
Si 1.186789 -0.003561 -0.000022
C 1.732664 -0.895572 1.528850
C 1.745808 1.762797 -0.001149
N -0.636398 0.021734 0.000059
C -1.476904 -1.112182 0.000079
C -2.793317 -0.657069 0.000115
N -2.808376 0.744266 -0.000305
C -1.507232 1.129757 0.000312
H 1.386139 -1.942779 -1.549622
H 1.373433 -0.407814 -2.447019
H 2.836952 -0.912655 -1.569514
H 2.837122 -0.910860 1.570342
H 1.373867 -0.404595 2.447470
H 1.386109 -1.940741 1.552091
H 1.407709 2.316038 -0.891485
H 1.408143 2.317039 0.888730
H 2.851912 1.785422 -0.001429
H -1.097379 -2.120942 0.000046
H -3.703076 -1.229252 -0.000009
H -1.163662 2.157707 0.000141