40

C 2.245731 3.408928 -0.492728
C 1.105232 2.821466 -0.115797
C 0.245810 1.996092 -0.987414
B -0.006797 0.517401 -0.321337
O -0.776733 0.624248 0.964588
C -2.088118 0.113081 0.783759
C -2.444158 -0.672221 2.052570
C -3.041760 1.311443 0.632913
C -2.000982 -0.776316 -0.525322
C -1.663062 -2.247983 -0.232632
C -3.245589 -0.699167 -1.419140
O -0.926188 -0.215543 -1.261290
C 1.341209 -0.315786 -0.067889
C 1.670640 -1.380780 -0.916414
C 2.846713 -2.108436 -0.719848
C 3.708213 -1.778965 0.333464
C 3.383117 -0.717789 1.185133
C 2.206283 0.010281 0.983257
H 2.853692 4.001330 0.168590
H 2.656843 3.335211 -1.484520
H 0.737516 2.934032 0.909561
H -0.761319 2.429907 -1.084693
H 0.645727 1.845295 -1.995800
H -2.538637 -0.005808 2.915486
H -3.391074 -1.207134 1.937075
H -1.667832 -1.402943 2.298914
H -2.793333 1.890593 -0.263157
H -4.086393 0.999944 0.565511
H -2.949059 1.987071 1.487753
H -2.469090 -2.760686 0.295743
H -1.470135 -2.790572 -1.162696
H -0.748955 -2.316126 0.367196
H -3.406152 0.315370 -1.797327
H -3.142712 -1.351183 -2.292285
H -4.144077 -1.005601 -0.876126
H 0.988628 -1.641512 -1.723117
H 3.095645 -2.933412 -1.383710
H 4.622597 -2.343586 0.487736
H 4.049313 -0.459241 2.005305
H 1.960490 0.839311 1.641387