19

N -1.388318 -1.788539 0.394904
C -1.210284 -0.313981 0.523645
C 0.111372 0.146598 -0.115664
C 1.325300 -0.335911 0.685525
C 2.610965 -0.045117 -0.052660
N 3.115928 1.237225 0.021129
O 3.222376 -0.898863 -0.701683
C -2.382504 0.480930 -0.122564
O -2.504121 1.690896 0.175070
O -3.157569 -0.136821 -0.890021
H -2.361917 -2.028106 0.592141
H -1.232502 -2.073629 -0.571927
H -1.202689 -0.075894 1.619212
H 0.175051 -0.216968 -1.161811
H 0.117410 1.254880 -0.180535
H 1.328983 0.116955 1.699561
H 1.250821 -1.432087 0.863547
H 2.657391 1.983009 0.524510
H 3.959603 1.494231 -0.473553