28

C 2.967017 -0.493699 1.270739
C 2.095961 -0.538731 0.012573
C 2.942137 -0.556933 -1.263193
C 1.160307 0.657098 -0.008806
C 1.458399 1.958399 -0.034636
O -0.137669 0.276206 0.000864
Si -1.697163 -0.110434 0.003233
C -2.405945 0.294594 1.670329
C -2.560138 0.863387 -1.320539
C -1.855885 -1.929286 -0.335799
H 3.623346 -1.370396 1.327035
H 2.356864 -0.481997 2.181894
H 3.608951 0.395097 1.294034
H 1.476677 -1.475534 0.042038
H 3.580610 0.330907 -1.344842
H 2.314111 -0.593661 -2.161455
H 3.599975 -1.433971 -1.287207
H 2.471821 2.323397 -0.043505
H 0.715224 2.738723 -0.048561
H -2.320991 1.365387 1.905754
H -1.912430 -0.267008 2.476763
H -3.477001 0.026993 1.672974
H -2.483670 1.947188 -1.150778
H -3.629785 0.590711 -1.320655
H -2.153696 0.649905 -2.319912
H -1.356162 -2.538471 0.430976
H -1.435367 -2.206212 -1.313237
H -2.927962 -2.193605 -0.337504