50

C 2.918687 -1.739296 -1.100858
Si 2.104021 -0.091317 -1.391128
O 0.800815 0.018399 -0.481338
C -0.312636 0.028987 0.373494
C -1.146571 1.286434 0.078965
C -0.647339 2.326930 -0.712861
C -1.424614 3.464669 -0.956228
C -2.704547 3.572678 -0.407147
C -3.206743 2.536678 0.388153
C -2.433383 1.399447 0.630323
C -1.158136 -1.205679 0.042123
C -1.265640 -1.622118 -1.294086
C -2.054271 -2.724551 -1.632348
C -2.754600 -3.418123 -0.640409
C -2.663351 -2.999567 0.689721
C -1.871884 -1.897766 1.030550
C 0.179147 0.100772 1.865363
H -0.738682 0.268784 2.486976
N 0.839105 -1.177744 2.287959
C 2.312060 -0.919926 2.388528
C 2.526168 0.602682 2.488665
C 1.185696 1.252097 2.104584
C 3.291919 1.272172 -0.947235
C 1.625013 0.068820 -3.183024
H 2.296840 -2.580169 -1.434806
H 3.871249 -1.773940 -1.654504
H 3.133912 -1.879666 -0.024398
H 0.353852 2.257947 -1.146090
H -1.026687 4.268523 -1.575570
H -3.309249 4.458993 -0.596180
H -4.204637 2.615941 0.819506
H -2.841135 0.598682 1.248464
H -0.729936 -1.080882 -2.077476
H -2.124984 -3.041671 -2.672648
H -3.369346 -4.278066 -0.903353
H -3.210299 -3.532564 1.467376
H -1.818040 -1.592783 2.075747
H 0.477309 -1.447146 3.212405
H 2.754556 -1.462412 3.244086
H 2.788264 -1.327356 1.462277
H 2.839283 0.899973 3.502753
H 3.331745 0.932346 1.800692
H 1.299727 1.883921 1.204376
H 0.823671 1.921408 2.902951
H 4.212335 1.150953 -1.542296
H 2.880200 2.269775 -1.150872
H 3.561409 1.229989 0.123564
H 0.982930 -0.755501 -3.522330
H 1.106111 1.013262 -3.395707
H 2.553191 0.045070 -3.781815