26

O -0.325889 1.634602 1.639281
S -0.496637 1.373418 0.177214
C 0.880679 0.927417 -0.559738
H 1.176911 1.471089 -1.456879
C 1.736204 -0.079881 -0.137233
O 2.844041 -0.203072 -0.987027
C 3.880827 -1.162821 -0.637113
C 4.892184 -0.505920 0.282168
O 1.649771 -0.860579 0.817250
C -1.674958 0.103181 0.042390
C -1.418800 -1.155206 0.594210
C -2.371090 -2.173539 0.490283
C -3.582826 -1.931172 -0.166234
C -3.841206 -0.672274 -0.718352
C -2.885892 0.343783 -0.612081
O -1.077955 2.584264 -0.484354
H 3.416605 -2.056496 -0.185423
H 4.299739 -1.410261 -1.629669
H 5.305850 0.410962 -0.155324
H 4.443269 -0.227429 1.243940
H 5.733361 -1.178428 0.493625
H -0.467348 -1.354153 1.104681
H -2.169526 -3.154422 0.919694
H -4.326951 -2.725388 -0.247732
H -4.784651 -0.482116 -1.229154
H -3.091542 1.328830 -1.044174