12

C -2.084590 -0.038073 0.000214
N -0.620001 -0.006384 -0.000554
C 0.217692 -1.126399 -0.000114
C 1.525349 -0.629829 0.000258
N 1.506963 0.764678 0.000230
C 0.194805 1.130039 -0.000214
H -2.471024 -0.547151 0.904493
H -2.509989 0.982489 -0.018317
H -2.471437 -0.579635 -0.884730
H -0.144000 -2.138726 -0.000196
H 2.447790 -1.183519 0.000549
H -0.179619 2.144064 -0.000398