33

C -0.398826 -0.822034 2.436592
N -1.136644 -1.196492 1.205375
C -0.298413 -1.599706 0.001296
N -1.136911 -1.198664 -1.203341
C -0.399458 -0.826556 -2.435504
C -2.101591 -0.249723 -0.716901
C -3.019846 0.508953 -1.427493
C -3.951476 1.271392 -0.697590
C -3.951305 1.272662 0.695796
C -3.019499 0.511552 1.426861
C -2.101424 -0.248428 0.717431
C 1.111523 -1.031527 0.000705
C 2.205291 -1.907565 0.001142
C 3.512486 -1.407526 0.000643
C 3.742500 -0.029107 -0.000268
C 2.638419 0.826549 -0.000644
Cl 2.910576 2.535734 -0.001701
C 1.326551 0.355220 -0.000168
H 0.102961 0.158007 2.394581
H -1.109368 -0.802519 3.281819
H 0.362750 -1.588585 2.659913
H -0.273435 -2.725250 0.002299
H 0.362064 -1.593522 -2.657585
H -1.110257 -0.808692 -3.280551
H 0.102319 0.153577 -2.395562
H -3.026922 0.520807 -2.514887
H -4.682223 1.871405 -1.240085
H -4.681920 1.873664 1.237375
H -3.026314 0.525384 2.514234
H 2.044482 -2.988019 0.001859
H 4.358761 -2.097960 0.000974
H 4.759079 0.366582 -0.000649
H 0.483534 1.048802 -0.000447