17

N 2.766381 -0.000295 -0.666744
C 1.937499 0.000433 0.572655
C 0.450306 0.000203 0.303744
C -0.241630 -1.212195 0.171831
C -1.615490 -1.210392 -0.085237
C -2.304742 -0.000250 -0.213314
C -1.615808 1.210161 -0.085502
C -0.241999 1.212418 0.171557
H 2.537492 -0.814668 -1.237209
H 2.537413 0.813342 -1.238220
H 2.224727 -0.886321 1.184478
H 2.224699 0.887909 1.183428
H 0.289937 -2.158471 0.270908
H -2.150227 -2.155025 -0.184710
H -3.375991 -0.000381 -0.411098
H -2.150889 2.154577 -0.185192
H 0.289357 2.158832 0.270425