21

C -1.305926 0.000000 1.546950
C -1.190806 0.000000 0.012384
C -0.429195 -1.259789 -0.461217
C 1.049106 -1.236198 -0.109760
C 1.706312 0.000000 0.020864
H 2.759100 0.000000 0.252637
O 1.620743 -2.338849 0.024848
C -2.602462 0.000000 -0.602944
C -0.429195 1.259790 -0.461216
C 1.049107 1.236198 -0.109762
O 1.620744 2.338848 0.024849
H -0.319252 -0.000001 2.021994
H -1.844207 0.881447 1.909835
H -1.844207 -0.881448 1.909834
H -0.903905 -2.167984 -0.048225
H -0.518044 -1.363863 -1.561160
H -3.174337 0.881344 -0.293731
H -2.572410 0.000001 -1.697444
H -3.174337 -0.881343 -0.293731
H -0.518045 1.363865 -1.561159
H -0.903905 2.167984 -0.048222