19

C -2.507433 -1.324286 0.000202
N -1.546888 -0.216976 -0.000434
C -0.149740 -0.348752 -0.000116
C 0.402270 0.981287 0.000047
C 1.803215 1.140612 0.000162
C 2.602456 0.013085 0.000155
C 2.041462 -1.293985 0.000035
C 0.674915 -1.494698 -0.000096
C -0.701437 1.897864 0.000028
C -1.870737 1.150093 -0.000135
H -2.382177 -1.957240 0.899006
H -3.547794 -0.953283 -0.007491
H -2.372425 -1.966598 -0.890496
H 2.232366 2.140546 0.000254
H 3.687027 0.111003 0.000249
H 2.717408 -2.149141 0.000061
H 0.240229 -2.490314 -0.000150
H -0.622534 2.965790 0.000103
H -2.893704 1.490745 -0.000184