29

C 4.154476 -1.454286 -0.204495
Si 3.060292 -0.009246 -0.596663
C 3.997422 1.584747 -0.454573
C 2.332341 -0.188944 -2.293823
O 1.848022 0.018901 0.482363
C 0.856153 0.038322 1.378490
C 1.094502 0.071417 2.690430
C -0.489981 0.018761 0.740278
C -1.138966 -1.191379 0.448916
F -0.537695 -2.337638 0.739858
C -2.413936 -1.221390 -0.139714
F -3.004073 -2.383408 -0.400967
C -3.063849 -0.017996 -0.451008
F -4.267576 -0.035220 -1.006705
C -2.433606 1.203665 -0.172049
F -3.042453 2.348568 -0.464129
C -1.158445 1.210006 0.416874
F -0.575620 2.373157 0.676699
H 4.600214 -1.383200 0.798258
H 3.612720 -2.410216 -0.264219
H 4.976825 -1.482151 -0.941932
H 4.821828 1.574497 -1.190073
H 3.363165 2.458189 -0.667649
H 4.435685 1.724558 0.544461
H 1.760427 -1.121695 -2.404578
H 1.669528 0.648342 -2.555670
H 3.159833 -0.208965 -3.026223
H 0.311118 0.087843 3.433140
H 2.090468 0.084354 3.110100