30

O 0.924811 2.647112 -0.252003
C 1.138955 1.442190 -0.318190
C 0.433438 0.397044 -0.940104
C -0.921746 0.671402 -1.516114
C -2.027246 0.253333 -0.575691
C -2.824401 1.214608 0.062683
C -3.851771 0.816966 0.924171
C -4.091657 -0.540357 1.155207
C -3.297276 -1.502780 0.521315
C -2.271011 -1.109752 -0.339067
C 0.978715 -0.895232 -1.048814
O 2.214460 -1.130446 -0.382257
C 2.637285 -0.260605 0.688735
C 1.867292 -0.593901 1.952045
C 4.143440 -0.392749 0.770225
O 2.372988 1.105110 0.304066
O 0.622128 -1.887847 -1.672291
H -1.010736 1.749561 -1.769729
H -1.038174 0.135411 -2.483532
H -2.645719 2.274508 -0.110051
H -4.467032 1.569483 1.416792
H -4.892354 -0.848113 1.824813
H -3.481591 -2.561790 0.699886
H -1.645923 -1.857957 -0.829074
H 2.053911 -1.626223 2.276456
H 2.155600 0.064286 2.782670
H 0.783378 -0.487213 1.816283
H 4.628562 -0.104808 -0.171804
H 4.558882 0.247768 1.560360
H 4.441980 -1.427348 0.988418