21

C 3.195704 -0.341945 1.557223
Si 2.507391 0.376471 -0.012295
H 2.830868 1.808074 -0.060469
C 3.199243 -0.446303 -1.528070
C 0.634454 0.226847 -0.008698
C -0.182434 1.368070 -0.034888
C -1.579046 1.254015 -0.030713
C -2.138412 -0.021831 0.000245
Cl -3.866843 -0.178893 0.006137
C -1.360334 -1.179114 0.026844
C 0.032732 -1.042944 0.022012
H 4.290710 -0.215939 1.600993
H 2.773035 0.156763 2.445490
H 2.990470 -1.417945 1.660573
H 2.994971 -1.527024 -1.558542
H 2.777966 -0.009525 -2.449013
H 4.294248 -0.322665 -1.578170
H 0.255812 2.370691 -0.059066
H -2.208564 2.142789 -0.051146
H -1.822615 -2.165110 0.050738
H 0.644516 -1.950294 0.042685