29

C -3.264325 1.437923 -0.402517
C -4.426371 0.685173 -0.202709
C -4.322619 -0.673392 0.114058
C -3.070522 -1.277966 0.229854
C -1.893347 -0.527859 0.028272
C -2.009049 0.840836 -0.287413
C -0.593213 -1.195509 0.161227
H -0.627988 -2.234134 0.498782
N 0.501684 -0.524749 -0.127143
C 1.755118 -1.053954 -0.046496
C 2.039060 -2.470110 0.364265
C 2.876050 -0.251954 -0.387194
O 2.836964 1.129975 -0.647803
C 1.822620 2.024612 -0.122717
C 1.929370 2.130156 1.386302
O 4.040403 -0.650367 -0.561807
H -3.340105 2.497024 -0.647939
H -5.403857 1.152819 -0.292665
H -5.225355 -1.263406 0.271005
H -3.003290 -2.335761 0.476572
H -1.103871 1.431879 -0.440920
H 1.501759 -3.185481 -0.270929
H 1.728032 -2.652527 1.400501
H 3.106306 -2.713440 0.295682
H 0.821676 1.694970 -0.458780
H 2.098707 2.966520 -0.634593
H 1.705612 1.170619 1.870406
H 1.221924 2.869847 1.781955
H 2.933098 2.429712 1.708225