32

C -2.747739 -0.558802 1.792486
Si -2.338281 -0.006495 0.067808
O -0.752797 -0.074910 -0.133287
C 0.590752 -0.156464 -0.314432
C 1.181979 -1.351137 -0.156135
C 2.652515 -1.557436 -0.343317
C 3.509660 -0.668320 0.572668
C 3.607615 0.785133 0.092000
C 2.310425 1.582624 0.277489
C 1.195595 1.162563 -0.690054
C -3.147992 -1.123223 -1.175434
C -2.898945 1.745485 -0.189232
H -2.277932 0.079552 2.554476
H -3.842085 -0.504520 1.927535
H -2.431674 -1.595059 1.979976
H 0.602832 -2.229359 0.118450
H 2.904030 -2.621283 -0.154256
H 2.922437 -1.374217 -1.405381
H 3.106819 -0.698632 1.603534
H 4.529782 -1.096072 0.637145
H 4.421846 1.293000 0.647731
H 3.914927 0.809349 -0.971819
H 1.954385 1.489175 1.322463
H 2.522408 2.660869 0.128952
H 1.591223 1.097772 -1.727069
H 0.410839 1.949389 -0.722446
H -4.241653 -1.073359 -1.034971
H -2.921978 -0.822395 -2.208578
H -2.835510 -2.170418 -1.053811
H -2.445320 2.433331 0.538702
H -2.655543 2.112934 -1.196406
H -3.994709 1.787616 -0.063471