30

C 1.004784 3.010089 0.626473
C 0.550864 1.849189 0.155326
O -0.721059 1.771827 -0.420862
C -1.576529 0.705453 -0.130063
C -1.522861 -0.027074 1.059377
C -2.501171 -1.003975 1.269304
C -3.498809 -1.228458 0.314920
C -3.526911 -0.477614 -0.867434
C -2.561125 0.500568 -1.108118
O 1.215745 0.715903 0.078227
Si 1.995530 -0.721840 -0.137391
C 2.365668 -1.406470 1.545252
C 0.882999 -1.854681 -1.092501
C 3.556325 -0.377205 -1.075061
H 2.018657 3.146540 0.966485
H 0.393226 3.894844 0.691044
H -0.742275 0.150504 1.797209
H -2.483874 -1.592122 2.188470
H -4.256920 -1.990309 0.490636
H -4.307079 -0.658634 -1.608788
H -2.561995 1.093362 -2.020271
H 1.452030 -1.599398 2.127107
H 2.904157 -2.364261 1.428391
H 3.002956 -0.730898 2.135885
H 0.672225 -1.468689 -2.101644
H 1.377171 -2.836489 -1.201621
H -0.081165 -2.011693 -0.584650
H 4.229090 0.306338 -0.536323
H 4.092915 -1.331847 -1.226006
H 3.356578 0.057745 -2.066217