27

C 2.341007 -1.440933 -0.056001
C 2.242949 0.047956 -0.175375
C 3.437777 0.804895 0.324087
C 1.172789 0.689595 -0.678463
C -0.059584 0.039724 -1.199380
Si -1.472493 0.018083 0.056192
C -1.877451 1.762924 0.590430
C -2.961825 -0.743820 -0.781590
C -1.000116 -1.006549 1.545216
H 1.949819 -1.776868 0.915351
H 1.752055 -1.955811 -0.828840
H 3.373469 -1.800328 -0.136448
H 4.326492 0.588678 -0.284003
H 3.292844 1.892095 0.308321
H 3.679435 0.527060 1.358833
H 1.167217 1.781507 -0.732247
H -0.425868 0.564701 -2.111869
H 0.125700 -1.016433 -1.510696
H -2.170091 2.386156 -0.267094
H -2.705047 1.776920 1.314395
H -1.004642 2.235520 1.066071
H -2.748981 -1.767685 -1.122189
H -3.816117 -0.792036 -0.089715
H -3.273564 -0.156274 -1.657431
H -0.075851 -0.615936 1.999113
H -1.787701 -0.992560 2.311953
H -0.817542 -2.054615 1.266262