23

C 4.257863 -0.286347 0.000095
C 2.784130 -0.214354 0.000034
C 1.845140 -1.244286 -0.000048
C 0.542125 -0.648241 -0.000034
C -0.759822 -1.169071 -0.000089
C -1.816543 -0.257666 -0.000052
O -3.053173 -0.877621 -0.000108
C -4.239302 -0.044515 -0.000082
C -1.633254 1.148233 0.000033
C -0.350677 1.676421 0.000086
C 0.729821 0.783435 0.000056
N 2.122904 1.024031 0.000086
H 4.699927 0.202443 -0.884085
H 4.699705 0.200770 0.885314
H 4.617546 -1.327764 -0.000844
H 2.049631 -2.293864 -0.000114
H -0.939643 -2.238609 -0.000159
H -4.276393 0.568376 -0.905567
H -5.043679 -0.791604 -0.000141
H -4.276427 0.568270 0.905473
H -2.491412 1.815597 0.000058
H -0.185019 2.753314 0.000152
H 2.553939 1.934171 0.000186