27

C 2.451748 1.739967 0.696420
N 1.507968 0.582777 0.711211
C 2.236510 -0.721210 0.873100
C 2.374695 -1.377524 -0.515521
C 1.371998 -0.655856 -1.430143
C 0.739767 0.482030 -0.584905
C -0.716413 0.209822 -0.249967
C -1.682081 1.182116 -0.552147
C -3.029420 0.950748 -0.260128
C -3.423800 -0.250160 0.337207
C -2.463956 -1.220412 0.643423
C -1.116911 -0.993049 0.351165
H 3.214209 1.704951 -0.095904
H 1.881347 2.675433 0.582389
H 2.971541 1.792262 1.666828
H 3.215734 -0.592660 1.369605
H 1.618411 -1.351732 1.547400
H 3.403875 -1.277180 -0.900440
H 2.171528 -2.460176 -0.466562
H 1.873966 -0.240552 -2.320053
H 0.605114 -1.349630 -1.814033
H 0.807324 1.443798 -1.154174
H -1.386416 2.123209 -1.014303
H -3.773429 1.710184 -0.498484
H -4.473279 -0.429142 0.564050
H -2.767050 -2.156662 1.110907
H -0.371475 -1.750372 0.593281