27

O -0.275519 1.891257 0.025552
C 0.065914 0.713355 0.189320
N -0.763829 -0.322393 -0.170351
C -2.141795 -0.091558 -0.670753
C -3.182556 -0.464804 0.398030
C -4.597804 -0.237297 -0.120781
C 1.445429 0.400016 0.796867
H 1.435756 0.838682 1.828445
N 1.698619 -1.073332 0.858376
C 2.557715 -1.415336 -0.323519
C 3.273420 -0.127632 -0.779780
C 2.562736 1.035136 -0.067189
H -0.496806 -1.293253 0.010383
H -2.257382 0.975766 -0.970861
H -2.288592 -0.702498 -1.590350
H -3.055770 -1.523020 0.702766
H -3.013686 0.131380 1.316919
H -4.810236 -0.843098 -1.010181
H -5.344175 -0.503255 0.638002
H -4.771542 0.811187 -0.392005
H 2.200638 -1.292700 1.729215
H 3.269835 -2.225029 -0.075742
H 1.894102 -1.804186 -1.124585
H 4.346423 -0.153931 -0.521465
H 3.230544 -0.015960 -1.876789
H 2.157354 1.767964 -0.787203
H 3.265799 1.600690 0.569693