22

O 2.789981 1.106343 0.853327
O 1.733526 1.066590 0.004248
C 1.180562 -0.295322 -0.183778
C 1.502553 -0.675421 -1.637646
C 1.741484 -1.300022 0.811897
C -0.332092 -0.106113 -0.052558
C -0.900889 1.166303 -0.210388
C -2.283182 1.342729 -0.107474
C -3.112963 0.246870 0.148916
C -2.553118 -1.025965 0.296955
C -1.170532 -1.203461 0.193365
H 2.571484 -0.865541 -1.770227
H 0.965065 -1.576861 -1.948697
H 1.226226 0.132914 -2.322661
H 1.166459 -1.335588 1.741280
H 1.792945 -2.313344 0.407996
H 2.761417 -0.978969 1.089913
H -0.254641 2.022238 -0.410405
H -2.714750 2.335594 -0.229117
H -4.189903 0.383436 0.230790
H -3.196293 -1.883460 0.492354
H -0.747016 -2.201477 0.302440