29

C 0.799630 2.566389 0.348584
O 1.482988 1.553977 -0.441094
C 1.193968 0.237111 -0.134209
O -0.118865 -0.003742 -0.064091
Si -1.727163 -0.204405 -0.014933
C -2.089942 -2.024052 -0.045610
C -2.371166 0.551966 1.552371
C -2.474508 0.628665 -1.495176
C 2.163475 -0.693019 0.000607
C 3.603863 -0.303541 -0.038425
C 1.850875 -2.141156 0.168430
H -0.258634 2.601557 0.071068
H 0.923891 2.369149 1.416301
H 1.319547 3.483633 0.048096
H -1.670819 -2.547779 0.826158
H -3.186276 -2.161000 -0.029383
H -1.701281 -2.512630 -0.951092
H -2.174505 1.632731 1.606063
H -3.465229 0.402306 1.589159
H -1.936047 0.086595 2.448961
H -2.101304 0.208275 -2.440636
H -3.568770 0.478973 -1.465729
H -2.280668 1.711003 -1.507908
H 4.152028 -0.721836 0.817558
H 4.091337 -0.678937 -0.949869
H 3.746598 0.786544 -0.020650
H 2.412097 -2.756479 -0.549062
H 2.123913 -2.488416 1.175823
H 0.784265 -2.368073 0.026255