15

C -2.402434 0.000029 0.003203
C -0.909604 0.000073 -0.006855
C -0.200973 -1.212636 -0.003908
C 1.195820 -1.209262 0.000637
C 1.898243 -0.000058 0.002661
C 1.195934 1.209197 0.000613
C -0.200875 1.212703 -0.003932
H -2.787333 -0.003291 1.034649
H -2.827273 0.883979 -0.492174
H -2.827068 -0.880877 -0.497772
H -0.740578 -2.158094 -0.004869
H 1.739668 -2.153830 0.002454
H 2.986423 -0.000112 0.005699
H 1.739857 2.153721 0.002410
H -0.740363 2.158227 -0.004913