11

O -2.284653 -0.982448 -0.000199
C -1.255024 -0.301201 0.000114
N -0.002972 -1.009379 0.000011
C 1.256203 -0.330842 0.000122
O 2.269741 -1.038587 -0.000113
C 1.184067 1.096629 0.000065
C -0.042883 1.732953 0.000063
N -1.243538 1.085720 0.000053
H -0.015034 -2.033234 -0.000146
H 2.114096 1.650324 0.000001
H -0.108372 2.831573 0.000004