22

C 2.984557 0.862466 -0.420504
C 2.652891 -0.492856 0.094100
C 1.435515 -1.040160 0.252850
N 0.182806 -0.432571 -0.129339
C -0.097144 0.871153 0.558474
C -1.389925 1.471580 -0.008105
O -2.494219 0.551088 0.139033
C -2.242178 -0.718138 -0.503641
C -0.975180 -1.371095 0.066342
H 2.209731 1.613207 -0.182536
H 3.933669 1.235460 -0.014175
H 3.082807 0.848132 -1.516852
H 3.529286 -1.098273 0.344135
H 1.365097 -2.078967 0.605734
H -0.174475 0.758710 1.660978
H 0.757533 1.568405 0.365290
H -1.728745 2.348542 0.572169
H -1.290708 1.737428 -1.075255
H -3.152375 -1.295821 -0.263155
H -2.170785 -0.557771 -1.593732
H -0.765550 -2.317062 -0.479965
H -1.132600 -1.640397 1.133374