17

H -0.792484 1.930083 -0.000066
C -0.964060 0.836943 -0.000098
Si 0.690280 -0.019398 0.000002
C 1.621516 0.512107 -1.524702
C 1.620056 0.509389 1.526532
C 0.432023 -1.864236 -0.001763
N -2.137635 0.337342 -0.000019
N -3.176618 -0.133244 0.000023
H 1.770108 1.602288 -1.546483
H 2.614183 0.036411 -1.561741
H 1.079387 0.229375 -2.440173
H 1.078372 0.222554 2.440996
H 2.613794 0.035830 1.562289
H 1.766163 1.599825 1.551736
H -0.122789 -2.193504 -0.893510
H 1.400142 -2.390628 0.000903
H -0.128236 -2.194574 0.886173