24

C -2.425474 -0.807576 1.531263
Si -1.767411 0.001619 0.000059
O -0.134475 -0.211308 -0.001227
C 1.167510 -0.229436 -0.000617
C 2.065996 -1.235084 -0.000143
C 3.446985 -0.641333 0.000401
C 3.186591 0.882768 0.000122
O 1.714620 1.065500 -0.000538
C -2.428108 -0.814540 -1.526335
C -2.134244 1.816344 -0.003577
H -2.019793 -0.351145 2.447186
H -3.524027 -0.691464 1.551699
H -2.197687 -1.883839 1.563499
H 1.884520 -2.288366 -0.000128
H 4.028083 -0.957716 0.886151
H 4.028884 -0.957908 -0.884750
H 3.532491 1.398336 0.907390
H 3.533279 1.398136 -0.906958
H -3.526471 -0.696720 -1.546586
H -2.022325 -0.363691 -2.444973
H -2.202093 -1.891334 -1.552972
H -1.726071 2.325086 0.883009
H -1.731399 2.320316 -0.895323
H -3.230327 1.957239 -0.000641