18

O -2.545858 0.342897 -0.266717
C -1.433766 -0.554116 -0.427438
C -0.328011 -0.243655 0.603779
H -0.749378 -0.353236 1.631715
N 0.776190 -1.237994 0.382569
C 1.811655 -0.547719 -0.455877
C 1.635949 0.974986 -0.273451
C 0.270328 1.170270 0.407293
H -2.918484 0.270893 0.638751
H -1.794960 -1.593086 -0.333428
H -1.106341 -0.367939 -1.466265
H 1.185208 -1.496252 1.289747
H 2.830203 -0.886283 -0.190630
H 1.640721 -0.838020 -1.513749
H 2.448860 1.400278 0.338954
H 1.681729 1.497748 -1.243543
H -0.400310 1.804281 -0.197871
H 0.379355 1.685802 1.376238