23

C 1.902561 -1.988535 -0.009069
C 1.650364 -0.673094 0.001101
C 2.659134 0.402939 0.013852
C 2.384222 1.706491 -0.010747
O 0.367237 -0.251893 0.000167
Si -1.213588 0.059482 0.001142
C -1.946641 -0.597449 1.574569
C -1.459491 1.897474 -0.100889
C -1.984466 -0.769805 -1.469452
H 1.127829 -2.739197 -0.018584
H 2.898423 -2.398993 -0.008904
H 3.691477 0.036003 0.044812
H 1.376368 2.107655 -0.042010
H 3.151895 2.470655 -0.001447
H -1.498420 -0.132552 2.464811
H -3.028033 -0.375214 1.580864
H -1.821167 -1.686307 1.664450
H -1.021628 2.326882 -1.013443
H -2.545266 2.100440 -0.116560
H -1.029286 2.424372 0.762929
H -1.856880 -1.861732 -1.440331
H -3.066510 -0.551020 -1.472952
H -1.560567 -0.406724 -2.417149