32

O -1.186866 -1.643031 0.262731
C -1.604821 -0.488670 0.080028
C -3.089606 -0.250013 0.048237
C -3.872358 -0.891283 -0.920355
C -5.253617 -0.677937 -0.949327
C -5.852203 0.166627 -0.008438
C -5.069372 0.801691 0.961603
C -3.686702 0.597959 0.989810
C -0.787894 0.655310 -0.112613
H -1.286069 1.611661 -0.274278
N 0.596137 0.651011 -0.116068
C 1.257653 1.885905 -0.330171
C 2.623221 1.965857 -0.344500
C 3.428385 0.800284 -0.143250
C 4.854678 0.838577 -0.149095
C 5.573672 -0.315985 0.049257
C 4.905307 -1.556069 0.261497
C 3.532219 -1.619882 0.272539
C 2.763019 -0.434094 0.069107
C 1.333472 -0.465998 0.075600
H -3.405533 -1.552532 -1.650694
H -5.864044 -1.171285 -1.705866
H -6.930091 0.330128 -0.031132
H -5.536921 1.458087 1.695775
H -3.076217 1.095960 1.743933
H 0.623572 2.769393 -0.483738
H 3.112614 2.932334 -0.511728
H 5.356858 1.794152 -0.312208
H 6.665246 -0.301497 0.047337
H 5.505503 -2.455796 0.415292
H 3.014945 -2.566985 0.434997
H 0.811805 -1.430124 0.243369