22

C 0.658183 -0.990049 3.328937
C 0.658183 -0.127202 2.112972
C -0.343865 -0.093499 1.229760
C -0.330795 0.784047 0.000000
C -1.552045 1.715603 0.000000
H 0.590629 1.422735 0.000000
C -0.343865 -0.093499 -1.229760
C 0.658183 -0.127202 -2.112972
C 0.658183 -0.990049 -3.328937
H 0.747947 -0.386484 4.243770
H -0.251581 -1.596138 3.430729
H 1.509911 -1.685930 3.320453
H 1.553182 0.486480 1.992847
H -1.238254 -0.704104 1.345503
H -1.555817 2.362114 -0.884520
H -2.494377 1.156497 0.000000
H -1.555817 2.362114 0.884520
H -1.238254 -0.704104 -1.345503
H 1.553182 0.486480 -1.992847
H -0.251581 -1.596138 -3.430729
H 0.747947 -0.386484 -4.243770
H 1.509911 -1.685930 -3.320453