32

O -2.142450 2.498899 -0.816608
C -2.228125 1.382509 -0.319498
C -1.532124 0.775782 0.743099
C -0.369945 1.488473 1.357524
C 0.936570 0.939520 0.842497
C 1.726096 1.687968 -0.049944
C 2.934316 1.183753 -0.518791
C 3.363842 -0.087877 -0.091283
N 4.629173 -0.621522 -0.575405
O 5.314424 0.067537 -1.326486
O 4.977172 -1.743186 -0.217540
C 2.580817 -0.850403 0.800228
C 1.377674 -0.332349 1.259138
C -1.935717 -0.466308 1.270356
O -2.991103 -1.138015 0.599284
C -3.313944 -0.803670 -0.768252
C -2.299591 -1.436254 -1.700207
C -4.757104 -1.211525 -0.970294
O -3.277293 0.632506 -0.912560
O -1.575878 -1.085099 2.264746
H -0.445305 2.580679 1.161192
H -0.402857 1.391213 2.466492
H 1.390874 2.674048 -0.378364
H 3.551493 1.763020 -1.213824
H 2.927689 -1.838081 1.121683
H 0.753530 -0.914374 1.946163
H -2.299670 -2.530964 -1.610547
H -2.516100 -1.197882 -2.750523
H -1.277043 -1.094089 -1.495837
H -5.428118 -0.693613 -0.271698
H -5.101002 -0.977468 -1.987421
H -4.893268 -2.290691 -0.813612