17
LiC9H7
C       -0.234089803      0.728697999     -0.204246824
C        1.001136105      1.413416752     -0.245322456
C        2.194802209      0.708941316     -0.262151345
C        2.195088235     -0.709028157     -0.238424291
C        1.001706177     -1.413027566     -0.198029854
C       -0.233796111     -0.727815152     -0.179879309
C       -1.584888387     -1.154991045     -0.140407139
C       -2.388403387      0.000870955     -0.140392139
C       -1.585351181      1.156411738     -0.178940487
H       -1.933517792      2.190363046     -0.187859006
H        1.014167849      2.508887099     -0.263948947
H        3.146485184      1.247896159     -0.293981614
H        3.146988337     -1.248362608     -0.252227238
H        1.015178764     -2.508503236     -0.180040958
H       -1.932639402     -2.188804972     -0.114829706
H       -3.482067133      0.001091145     -0.166694312
Li      -1.114958707      1.795160460      1.934062114
