23
LiC10NH11
C        3.623588227     -0.689368443     -0.339133751
C        2.201181414     -0.190754790     -0.290046056
C        1.953773313      1.202800088     -0.245956239
C        0.671024243      1.723239004     -0.199734064
C       -0.396651008      0.817582457     -0.197672500
C       -0.187815628     -0.582282230     -0.240978417
C       -1.488836400     -1.193194332     -0.225053254
C       -2.415842079     -0.182605097     -0.174428756
C       -3.906759762     -0.245024133     -0.138783417
N       -1.755338581      1.027948204     -0.158019057
C        1.129573322     -1.073633590     -0.287280264
H        4.192514648     -0.357267809      0.542441198
H        3.658999722     -1.786248055     -0.370042385
H        4.148395909     -0.308785108     -1.228444016
H        2.805754896      1.886749563     -0.248655440
H        0.502491539      2.800870207     -0.166220426
H       -1.712114400     -2.256737332     -0.225073254
H       -4.306748081      0.221818952      0.774385018
H       -4.351324916      0.271214961     -1.003458691
H       -4.237274675     -1.289912250     -0.159521115
H       -2.205435764      1.931322864     -0.122171885
H        1.309767364     -2.150641469     -0.321075514
Li      -0.809759306     -1.673196434      1.873160577
