23
LiC7H11O4
O        1.533197232     -1.572530744      0.030787357
C        1.247117232     -0.387279744      0.030898357
C        0.000458232      0.281497256      0.030826357
H        0.000458232      1.368233256      0.030828357
C       -1.246200768     -0.387279744      0.030746357
O       -2.301486768      0.543392256      0.030795357
C       -3.582145768     -0.019736744      0.030881357
C       -4.585978768      1.117304256      0.030708357
O       -1.532280768     -1.572530744      0.030835357
O        2.302402232      0.543392256      0.030827357
C        3.583062232     -0.019736744      0.030715357
C        4.586895232      1.117304256      0.030884357
H       -3.722476768     -0.673450744     -0.848135643
H       -3.722482768     -0.673182744      0.910101357
H       -5.618306768      0.736034256      0.030799357
H       -4.444070768      1.750383256      0.918660357
H       -4.444109768      1.750061256     -0.857479643
H        3.723406232     -0.673460744      0.909721357
H        3.723385232     -0.673171744     -0.848515643
H        5.619223232      0.736033256      0.030774357
H        4.444974232      1.750392256     -0.857058643
H        4.445039232      1.750051256      0.919081357
Li       0.032224084      1.010719043      2.166540644
