30
LiSiC11H16O
C        0.075846623     -1.797605352      0.118487617
C       -0.017446301     -0.506702318      0.476551744
O        1.044634073      0.317971129      0.610331595
Si       2.706061033      0.010866339      0.473255483
C        3.118495676     -0.497544167     -1.281684066
C        3.483244790      1.659825283      0.874737280
C        3.217447831     -1.285715656      1.725311469
C       -1.305511258      0.171250613      0.793438242
C       -2.538585433     -0.365228396      0.397605886
C       -3.728897387      0.276415808      0.724422091
C       -3.709253464      1.470694689      1.446265926
C       -2.487873031      2.019646407      1.830781753
C       -1.294855991      1.378184835      1.503193343
H       -0.687454377     -2.550348352      0.299196617
H        1.116247623     -2.120536352      0.135222617
H        2.733149477      0.250189544     -1.990801174
H        4.210691734     -0.553037077     -1.408259568
H        2.696585549     -1.474012369     -1.556195024
H        3.216468789      1.978076297      1.893112399
H        4.580094354      1.606460269      0.808891715
H        3.134122050      2.432340994      0.174138383
H        2.783034288     -2.273159354      1.517813748
H        4.313407429     -1.389740617      1.730039547
H        2.901156632     -0.981680362      2.734194183
H       -2.569623172     -1.283112363     -0.190451765
H       -4.678809281     -0.154466381      0.404234915
H       -4.643376173      1.974424052      1.699499691
H       -2.461337481      2.956691250      2.389398559
H       -0.336806864      1.806445327      1.795626046
Li       0.336534098     -3.057520004      1.972862474
