29
LiC14PNH11O
N       -0.161685862      3.502760240     -0.978864820
C       -0.161836862      2.910931240      0.033472180
C       -0.162013862      2.142007240      1.195819180
H       -0.162376862      2.610326240      2.178774180
P       -0.156589486      0.417528869      1.197224977
O       -0.154411131     -0.271535756      2.539737247
C       -1.572221315     -0.249847236      0.204416815
C       -2.074994025      0.355921718     -0.954042263
C       -3.149785892     -0.221238059     -1.631547765
C       -3.732648649     -1.398609552     -1.158718571
C       -3.241745731     -1.996851778      0.001430984
C       -2.167546345     -1.421758772      0.680403638
C        1.263176560     -0.240897435      0.204355849
C        1.761811778      0.367741570     -0.954392667
C        2.840193333     -0.202668887     -1.631905456
C        3.430734997     -1.376103872     -1.158818161
C        2.943915879     -1.977144454      0.001602775
C        1.866146815     -1.408789967      0.680594712
H       -1.636978807      1.289156089     -1.318747323
H       -3.539786310      0.256709658     -2.532859768
H       -4.574281491     -1.845922911     -1.692602065
H       -3.701525690     -2.912433605      0.381125805
H       -1.772775635     -1.854747685      1.602782351
H        1.317722953      1.298013092     -1.319314548
H        3.226935743      0.277509375     -2.533436351
H        4.275140895     -1.818139085     -1.692720794
H        3.409662738     -2.889623494      0.381491309
H        1.474325734     -1.844036487      1.603169340
Li       1.971912344      1.743309172      1.813433784
