31
LiSiC11H18
C       -2.045259541     -1.411386938     -0.785257677
Si      -1.673156693      0.083916138      0.301708690
C       -2.155925283      1.659358879     -0.614764303
C       -2.648896809     -0.040724886      1.907656963
C        0.174462272      0.128205491      0.709929630
C        1.102189965      0.185280394     -0.515542350
C        2.562066763      0.232364788     -0.134487730
C        3.283924208     -0.947371474      0.078787419
C        4.615483443     -0.908540581      0.488148792
C        5.249626331      0.316692750      0.691871986
C        4.542061655      1.499579272      0.481347617
C        3.210380876      1.454975540      0.072115097
H       -1.524104825     -1.345830927     -1.752242678
H       -1.733418171     -2.345268607     -0.293029621
H       -3.123890647     -1.483333298     -0.991694053
H       -3.235757251      1.670748279     -0.827058433
H       -1.920625083      2.552539473     -0.016072212
H       -1.625932851      1.744619674     -1.575391424
H       -2.381255781     -0.952642523      2.462297002
H       -2.446481735      0.822515256      2.559561238
H       -3.731413147     -0.069623420      1.711928584
H        0.373457784      0.998904438      1.358852964
H        0.426326047     -0.759044325      1.316722276
H        0.923032056     -0.693774601     -1.155517001
H        0.858076287      1.071078704     -1.124014936
H        2.792740075     -1.910811078     -0.081386339
H        5.161928032     -1.840031979      0.645898851
H        6.292828449      0.349455688      1.009967587
H        5.030584478      2.463582849      0.633636533
H        2.661493794      2.385775906     -0.093307450
Li      -6.082467868     -0.132386476      1.286837420
