27
LiC11NH13O
C        3.705139805     -1.639602907      0.340981780
C        2.443153759     -0.879923735      0.701350057
O        1.676407793     -1.243436947      1.556456233
N        2.238197058      0.252299069     -0.067766627
C        1.156209157      1.147175991      0.084522704
C        1.363164752      2.470935007      0.024903011
C       -0.201981668      0.555598220      0.196294998
C       -1.189486719      1.174236652      0.968872322
C       -2.478051302      0.650803226      1.023988357
C       -2.820077266     -0.504898383      0.314291275
C       -4.221430328     -1.055074193      0.356063801
C       -1.823650623     -1.125893513     -0.447973035
C       -0.534601966     -0.609089657     -0.504323316
H        3.860903042     -2.423102887      1.088986646
H        3.593674376     -2.100074331     -0.651356851
H        4.579908121     -0.974499051      0.313311542
H        3.021005987      0.585527592     -0.616007856
H        0.521107752      3.161279007      0.010302011
H        2.371898752      2.882822007     -0.040434989
H       -0.933897741      2.058442959      1.555511723
H       -3.231451436      1.141594349      1.644474138
H       -4.852232315     -0.577700349     -0.410255015
H       -4.230354464     -2.136593713      0.165771763
H       -4.692437169     -0.872884478      1.331652639
H       -2.063112345     -2.035642906     -1.003277088
H        0.229322514     -1.110119930     -1.101898039
Li       1.389104262      3.113916817     -2.138416321
