37
LiC16N2H18
C       -0.460092000     -2.463485000     -1.030228000
N       -1.000054000     -1.132726000     -1.077086000
C       -0.139894000      0.000506000     -1.406430000
N       -1.000109000      1.133479000     -1.076331000
C       -0.460191000      2.464226000     -1.028635000
C       -1.992275000      0.707073000     -0.202780000
C       -2.872267000      1.418605000      0.591004000
C       -3.785464000      0.692276000      1.385185000
C       -3.785424000     -0.693336000      1.384718000
C       -2.872188000     -1.419072000      0.590042000
C       -1.992238000     -0.706948000     -0.203257000
C        1.177817000      0.000266000     -0.638156000
C        2.397425000      0.000535000     -1.307778000
C        3.601595000      0.000282000     -0.599018000
C        3.609853000     -0.000246000      0.796110000
C        4.898062000     -0.000627000      1.576568000
C        2.375743000     -0.000501000      1.465668000
C        1.176761000     -0.000259000      0.764332000
H        0.088212000     -2.674600000     -0.092256000
H       -1.273478000     -3.195635000     -1.134754000
H        0.232392000     -2.606766000     -1.871390000
H        0.097645000      0.000878000     -2.488562000
H        0.231937000      2.608218000     -1.869972000
H       -1.273671000      3.196398000     -1.132261000
H        0.088481000      2.674639000     -0.090722000
H       -2.858658000      2.508746000      0.610790000
H       -4.490610000      1.235848000      2.015072000
H       -4.490541000     -1.237373000      2.014235000
H       -2.858512000     -2.509227000      0.609071000
H        2.410594000      0.000953000     -2.401181000
H        4.549123000      0.000506000     -1.142445000
H        4.963546000      0.884455000      2.226532000
H        4.964170000     -0.887112000      2.224569000
H        5.769873000      0.000394000      0.909817000
H        2.361452000     -0.000898000      2.558261000
H        0.225858000     -0.000469000      1.305041000
Li       0.610073938      0.001680494     -4.822981829
