18
LiC8N2H5O2
O       -3.553180979      0.686810159      0.287323049
N       -2.779581167     -0.263059533      0.263710540
C       -1.381281719     -0.005283069      0.205544228
C       -0.907313372      1.321512022      0.176253561
C        0.440602628      1.571608550      0.120167690
C        1.417027961      0.513501385      0.089107943
C        2.782707299      0.793896028      0.032092784
H        3.123316299      1.829643028      0.032063784
C        3.770966299     -0.212978972      0.032124784
N        4.585867299     -1.046394972      0.031801784
C        0.888350545     -0.826403689      0.120698715
C       -0.460266424     -1.072812211      0.176783308
O       -3.165900839     -1.424965002      0.288070173
H       -1.635609677      2.131598929      0.199256965
H        0.797775861      2.603898978      0.097846447
H        1.594227199     -1.659064936      0.098776134
H       -0.848777200     -2.090579538      0.200254588
Li       2.623113320      1.111459235      2.260933822
