20
LiC7NH5SO4Cl
Cl      -2.098829123     -2.018807933     -0.751170096
C       -2.439847123     -0.283340933     -0.962469096
H       -2.163513123      0.063157067     -1.960999096
S       -1.733601680      0.682421498      0.220882528
C        0.066469259      0.440000094      0.178311041
C        0.867866355      1.305420406     -0.573999264
C        2.224220400      1.046293272     -0.720547294
C        2.754888929     -0.092826693     -0.112712523
N        4.185008147     -0.372836565     -0.264194107
O        4.850412688      0.403003520     -0.915965868
O        4.631143151     -1.366480324      0.267237979
C        1.972551308     -0.967616882      0.640601090
C        0.618746383     -0.692257814      0.789799898
O       -1.912662792      2.089978946     -0.167043499
O       -2.090704463      0.237421923      1.571349243
H        0.397272182      2.182779503     -1.021281440
H        2.883101622      1.702191095     -1.287364358
H        2.439968237     -1.836985388      1.100148687
H       -0.032328443     -1.332945905      1.385487573
Li      -4.685180883     -0.126524847     -0.795334347
