22
LiC9N2H10
C        0.921258988     -0.040093986      0.121955264
C       -0.557882180      0.012378877      0.121304418
C       -1.282818627     -1.167805293      0.322302530
C       -2.673331581     -1.138208240      0.327241227
C       -3.350979591      0.066336901      0.125037844
C       -2.632555207      1.241228833     -0.087738566
C       -1.238566533      1.215317744     -0.090798463
N        1.593552624     -1.114431505     -0.031081722
C        3.001998224     -0.731954566     -0.022957849
C        3.037450276      0.722783105      0.500751228
N        1.657686973      1.136770985      0.254223331
H       -0.727956499     -2.095033778      0.470845880
H       -3.234781979     -2.059608230      0.489042129
H       -4.441896222      0.086565148      0.128687662
H       -3.158086556      2.181581225     -0.260252465
H       -0.675827312      2.129775885     -0.287367533
H        3.599412121     -1.423114723      0.587800930
H        3.391506277     -0.790913613     -1.053469154
H        3.278811868      0.755301855      1.577636463
H        3.758651155      1.354794661     -0.034329128
H        1.264145881      1.852104421      0.855547102
Li       0.835498169     -3.036954757     -0.258015166
