49
LiSnC16H30S
C        0.977412837      5.372502166      1.890628534
C        0.821822198      3.938102987      2.381918561
C        0.430280995      2.964549205      1.271441934
C        0.268013535      1.520290469      1.748023084
Sn      -0.258066539      0.184092226      0.122791905
C       -0.339638021     -1.839285606      0.872389796
C       -1.285139148     -2.801903051      0.598068728
C       -1.035828421     -4.053834546      1.238977587
C        0.101759678     -4.030890144      1.998443502
S        0.858061630     -2.489563061      1.931016015
C       -2.242889605      0.636791116     -0.620546361
C       -3.282751491      0.691143197      0.500365395
C       -4.695580765      0.997538361      0.005678521
C       -5.722409315      1.045507437      1.131031623
C        1.319254326      0.273559663     -1.362251915
C        2.696594985      0.097442401     -0.719985552
C        3.844858388      0.083015154     -1.728387571
C        5.211252334     -0.070874248     -1.070694330
H        1.753592697      5.440372962      1.113273605
H        0.037749721      5.742816821      1.453171619
H        1.258718507      6.053479583      2.705820870
H        1.763447445      3.593255422      2.841082003
H        0.060978582      3.893941643      3.179123093
H       -0.509659495      3.316506012      0.807295948
H        1.192367519      3.013904133      0.471795375
H        1.202980732      1.159267647      2.207764170
H       -0.506335713      1.454028645      2.529218590
H       -2.145660757     -2.623234471     -0.049767396
H       -1.673933553     -4.931416339      1.139526508
H        0.462817678     -4.806858144      2.670124502
H       -2.205939385      1.598655878     -1.157712027
H       -2.522380056     -0.122826642     -1.369089343
H       -3.295049996     -0.267226440      1.049916350
H       -2.993851012      1.455470552      1.244338486
H       -4.684167340      1.958952780     -0.534877200
H       -4.986849701      0.235400518     -0.736603970
H       -6.729701927      1.270234250      0.753532235
H       -5.769050196      0.082505174      1.661567847
H       -5.460295117      1.817577192      1.870270806
H        1.138195858     -0.519774864     -2.105144520
H        1.265490719      1.231796264     -1.904206349
H        2.877074702      0.907811098      0.009937036
H        2.724282008     -0.841978844     -0.137553763
H        3.678068096     -0.738019299     -2.445344337
H        3.813422949      1.014457036     -2.318445600
H        5.408768685      0.758487107     -0.374683815
H        5.266577912     -1.006610785     -0.494170874
H        6.020768773     -0.085394230     -1.813852170
Li      -2.931271665     -2.674624264      2.136930920
