25
LiSi2C5H16O
C        1.748303213      1.666932980      0.948458894
Si       1.406023637      0.051046772      0.057515950
H        2.057029449      0.065677921     -1.279185271
C        2.048920661     -1.397782252      1.057055012
O       -0.229023728     -0.117241383     -0.189497282
Si      -1.675926470      0.092010270      0.615930386
C       -2.978707114     -0.870423284     -0.318349837
C       -1.493114691     -0.560128229      2.368945643
C       -2.096845519      1.919927876      0.650654016
H        2.829122782      1.820333589      1.086972674
H        1.353697755      2.521368803      0.379134742
H        1.277813457      1.672430945      1.944323987
H        1.603369877     -1.408148676      2.063256818
H        1.802428420     -2.349413680      0.564167718
H        3.142314809     -1.344406838      1.168903714
H       -2.721409238     -1.939204902     -0.352208019
H       -3.966351286     -0.769014768      0.155894362
H       -3.056428089     -0.508359893     -1.353993210
H       -0.715360258     -0.007670340      2.919451163
H       -2.434196940     -0.457938107      2.930561300
H       -1.215347628     -1.625072009      2.364056433
H       -2.145998054      2.325471477     -0.370901434
H       -3.071137785      2.092334977      1.132817876
H       -1.338536365      2.491191796      1.207029820
Li       3.103455992      0.089196025     -3.427798402
