17
LiC4NH9O2
N        2.877340176     -0.170706304      0.041128189
C        1.648265176     -0.806217304      0.449704189
C        0.508499176      0.182665696      0.355922189
O       -0.677197824     -0.428037304      0.308601189
C       -1.824050824      0.424171696      0.292695189
C       -3.051657824     -0.455390304      0.257664189
O        0.643502176      1.375623696      0.370955189
H        2.906103176      0.774982696      0.418700189
H        3.685347176     -0.675910304      0.391379189
H        1.402732176     -1.668499304     -0.188281811
H        1.619702176     -1.178946304      1.495484189
H       -1.801063824      1.068759696      1.184381189
H       -1.762586824      1.085772696     -0.584205811
H       -3.048416824     -1.087363304     -0.640582811
H       -3.083746824     -1.108288304      1.140312189
H       -3.958927824      0.163170696      0.246999189
Li       2.935241996     -0.150411338     -2.036966249
