36
LiSnGeC9H24
C        3.488161775     -1.534897528      1.098064189
Ge       3.468678791      0.077956558     -0.027990729
C        3.458299642      1.671169717      1.125802430
C        5.068368638      0.102800030     -1.169623112
C        1.849474182      0.072620495     -1.154222510
C        0.540782240      0.053567579     -0.357260885
C       -0.716164314      0.049297122     -1.232959045
Sn      -2.552743225      0.022319972     -0.069567425
C       -2.594534451      1.775521217      1.205475988
C       -4.287619269      0.020077223     -1.367216705
C       -2.564466973     -1.755570221      1.171442405
H        2.617094565     -1.559504246      1.768449855
H        3.470383035     -2.443951110      0.479546740
H        4.394803303     -1.562698691      1.719573438
H        4.364359725      1.705125676      1.747853986
H        3.423547181      2.590251809      0.523027343
H        2.587018675      1.668056351      1.796350900
H        5.096000349     -0.781453800     -1.822441579
H        5.079307278      0.998538937     -1.807098996
H        5.983324281      0.106127748     -0.559920498
H        1.872731249      0.960251684     -1.809279207
H        1.889163584     -0.802982186     -1.824498961
H        0.531980271     -0.832161767      0.303709231
H        0.515499686      0.927582830      0.318697535
H       -0.721585724      0.936805715     -1.887121306
H       -0.705197413     -0.826927109     -1.902088354
H       -2.586332172      2.694594134      0.603022240
H       -3.499113197      1.780965798      1.829409003
H       -1.719674193      1.791808519      1.870543191
H       -4.283687671     -0.864321209     -2.019270958
H       -5.212827510      0.006838566     -0.774536310
H       -4.298515152      0.916447142     -2.002635668
H       -1.689305892     -1.769742925      1.836166052
H       -3.468684346     -1.788345735      1.795061256
H       -2.540786920     -2.662625890      0.551436789
Li      -7.225169587     -0.021955716      0.514552614
