42
LiSiC12H28
H       -1.625956725      1.285757522     -0.226783386
Si      -0.857155761      0.040132789     -0.535437303
C        0.974665202      0.483963915     -0.673395542
C        1.871187317     -0.716262422     -0.989137412
C        3.352292380     -0.362087164     -1.101502256
C        4.231338621     -1.566624793     -1.415941478
C       -1.119860894     -1.205518424      0.861102216
C       -0.493110521     -0.793183344      2.195327760
C       -0.768644475     -1.776227570      3.331277831
C       -0.127039504     -1.359887731      4.649236743
C       -1.476908013     -0.674474301     -2.171355215
C       -1.151309265      0.185770292     -3.394857870
C       -1.714433635     -0.369534312     -4.701458504
C       -1.370549262      0.489611996     -5.912087535
H        1.094963762      1.258674131     -1.450572211
H        1.297566263      0.957338924      0.270162747
H        1.747300476     -1.490891304     -0.210596012
H        1.544488763     -1.189244932     -1.933107839
H        3.476848066      0.407949090     -1.881280288
H        3.679739501      0.106184146     -0.158091372
H        5.291614465     -1.287650312     -1.491926280
H        4.141594984     -2.334875106     -0.632939474
H        3.937123171     -2.030759630     -2.369550793
H       -2.205809510     -1.358825790      0.987466859
H       -0.714528923     -2.182357216      0.542695032
H        0.599896113     -0.686261886      2.074824231
H       -0.859803504      0.206794455      2.489509325
H       -1.859283922     -1.876920510      3.460156350
H       -0.404800542     -2.774527343      3.034784194
H       -0.498538864     -0.376436310      4.975093833
H       -0.339990414     -2.081121461      5.450730397
H        0.966159322     -1.283153804      4.548111098
H       -1.049117570     -1.684716078     -2.299019062
H       -2.568571705     -0.819281506     -2.093529617
H       -1.535111303      1.211194768     -3.245986204
H       -0.055927570      0.289159269     -3.495189634
H       -1.332817528     -1.394267034     -4.847010272
H       -2.809153173     -0.464158842     -4.607232840
H       -0.280540916      0.571091195     -6.040310429
H       -1.787014172      0.071069167     -6.839070351
H       -1.766823630      1.509911838     -5.796648495
Li      -2.854219182      3.275809781      0.266332564
