35
LiC14H13S2O5
O       -0.015439575     -0.406553883     -1.963375060
S       -0.913841575     -0.957382883     -0.940733060
C        0.004882425     -1.399295883      0.420800940
O       -0.712181997     -1.767172830      1.538826453
C       -0.878272262     -0.795503917      2.548933847
S        1.655528425     -0.952942883      0.548782940
O        2.490996425     -1.480752883     -0.527156060
C        1.788123425      0.841513117      0.345280940
C        1.508844425      1.677557117      1.424746940
C        1.529534425      3.059899117      1.246304940
C        1.838253425      3.597164117     -0.005163060
C        2.139174425      2.750071117     -1.073840060
C        2.120011425      1.365837117     -0.902671060
O        2.026253425     -1.215312883      1.948451940
C       -1.955374575      0.412152117     -0.382434060
C       -1.475660575      1.720513117     -0.448638060
C       -2.226653575      2.749373117      0.116899940
C       -3.445898575      2.469532117      0.738517940
C       -3.924773575      1.158892117      0.780803940
C       -3.181822575      0.123785117      0.214299940
O       -1.884033575     -1.992654883     -1.302063060
H        0.012313426     -0.765432111      3.196605360
H       -1.052748557      0.209133878      2.124947246
H       -1.756825271     -1.084287738      3.145405648
H        1.281805425      1.230302117      2.394486940
H        1.304897425      3.720651117      2.086110940
H        1.850029425      4.679923117     -0.146593060
H        2.385053425      3.171129117     -2.050808060
H        2.325388425      0.670284117     -1.716421060
H       -0.517373575      1.914498117     -0.936047060
H       -1.853184575      3.774693117      0.074239940
H       -4.027527575      3.277414117      1.187323940
H       -4.882995575      0.943778117      1.258539940
H       -3.523244575     -0.912703883      0.224759940
Li       0.195796749     -3.628819930      0.715458787
