17
LiC6H10
C        2.683051786     -0.165438643     -0.237509474
C        1.474332496      0.351431905      0.016788235
C        0.269346467     -0.459257867      0.169568605
C       -0.978235161     -0.021657055      0.424728893
C       -1.356132116      1.422487760      0.601641769
C       -2.123603233     -0.987284938      0.555143476
H        2.834218786     -1.248189643     -0.237523474
H        3.572763786      0.465703357     -0.237512474
H        1.378770656      1.436085116      0.116194531
H        0.416835376     -1.539595460      0.061287495
H       -2.118950882      1.708467998     -0.140302709
H       -1.810091354      1.576865664      1.593736079
H       -0.510261155      2.111498689      0.503271449
H       -1.800004905     -2.027160488      0.418683203
H       -2.597389043     -0.896482621      1.546219899
H       -2.905938839     -0.764822498     -0.188773038
Li       3.723691638     -0.597549677      1.718097275
