53
LiBC21H25O2F3
C       -3.937270571     -2.644826666     -1.195362215
C       -2.751185571     -1.905780666     -0.581390215
C       -1.706805571     -2.937674666     -0.128277215
O       -2.197970571     -1.050894666     -1.545208215
B       -1.485916571      0.029463334     -0.827350215
C        0.109292429     -0.297380666     -0.621856215
C        0.804881429      0.117617334      0.525302785
C        2.176757429     -0.077742666      0.664322785
C        2.891696429     -0.710180666     -0.356161215
C        4.353986429     -0.972107666     -0.194157215
F        4.609353429     -2.146813666      0.410973785
F        5.000007429     -1.017230666     -1.369329215
F        4.964838429     -0.038279666      0.549395785
C        2.228076429     -1.142041666     -1.506923215
C        0.855998429     -0.931791666     -1.626933215
C       -1.592660571      1.448532334     -1.691538215
C       -3.046384571      1.805219334     -1.996785215
C       -0.862642752      2.551858034     -0.982418735
C        0.392598339      3.002720517     -1.418523651
C        1.104965233      3.975380952     -0.718479853
C        0.575367035      4.533512920      0.444094214
C       -0.669548060      4.094187195      0.898193311
C       -1.374689814      3.117855272      0.198055261
O       -2.179567571      0.102281334      0.488637785
C       -3.138251571     -0.917806666      0.584053785
C       -4.535664571     -0.318801666      0.376872785
C       -3.075313571     -1.541712666      1.978219785
H       -4.478054571     -3.236066666     -0.438751215
H       -4.635026571     -1.938428666     -1.663345215
H       -3.572796571     -3.329738666     -1.975877215
H       -1.302265571     -3.433931666     -1.023185215
H       -0.870519571     -2.451565666      0.391839785
H       -2.142366571     -3.700860666      0.535607785
H        0.242185429      0.617170334      1.319165785
H        2.703733429      0.268426334      1.556224785
H        2.792378429     -1.633571666     -2.302586215
H        0.332026429     -1.271423666     -2.525791215
H       -1.068399571      1.262962334     -2.646135215
H       -3.606012571      1.989123334     -1.067120215
H       -3.138350571      2.706372334     -2.627581215
H       -3.532127571      0.961770334     -2.510150215
H        0.824370587      2.558633592     -2.319400796
H        2.083800654      4.296346651     -1.082554717
H        1.129852158      5.295798802      0.995469460
H       -1.090937601      4.508762141      1.817395932
H       -2.322623623      2.741913068      0.587526566
H       -4.638694571      0.062424334     -0.646974215
H       -5.337023571     -1.049983666      0.568957785
H       -4.653885571      0.526500334      1.071901785
H       -3.386061571     -0.793598666      2.723389785
H       -3.744074571     -2.414142666      2.062595785
H       -2.049940571     -1.849995666      2.218645785
Li      -1.737364596      3.372246982     -2.863046517
