9
LiCN2H4O
N       -1.382802363     -0.342527650     -0.439810835
N       -0.148805554      0.275740406     -0.413578517
C        0.998746785     -0.462170503     -0.400277087
O        2.105760880      0.008918059     -0.377508666
H       -1.918026363     -0.095545650     -1.269331835
H       -0.049294016      1.288935367     -0.403214610
H        0.770154546     -1.551599165     -0.413562344
H       -1.219245677     -1.329061582     -0.439915143
Li      -2.441698126      0.187123646      1.269121658
