40
LiSiC12H26
C       -1.704211094      2.233213939      0.229902180
C       -1.728860492      0.897493046     -0.483996890
C       -0.539829316      0.677914801     -1.384681629
Si       1.125140267      0.571097966     -0.454047613
C        0.877350407     -0.429310810      1.128569289
C        0.456007566     -1.876547146      0.861997094
C        2.352044769     -0.304935025     -1.598437688
C        3.762836984     -0.417745286     -1.014872461
C        1.822659988      2.277355923     -0.020944330
C        2.118833778      3.158173801     -1.237438678
C       -2.710388926     -0.005243127     -0.278453595
C       -3.922034926      0.306552873      0.565561405
C       -2.920346926     -1.223557127     -1.141244595
H       -1.184060805      2.983972600     -0.384217145
H       -2.707203330      2.620260959      0.444801506
H       -1.157256895      2.171957377      1.186883537
H       -0.626388327     -0.241706157     -1.979034952
H       -0.459757137      1.506931778     -2.111010751
H        1.802994715     -0.397702453      1.727518103
H        0.107291206      0.082425677      1.731059565
H        1.243310834     -2.431516264      0.328927665
H        0.240074982     -2.423763026      1.791426500
H       -0.451318140     -1.912928158      0.239823855
H        1.951840505     -1.306457968     -1.830414056
H        2.376590212      0.233767396     -2.561175851
H        4.197724399      0.575923085     -0.825977178
H        3.756513792     -0.957002471     -0.054511986
H        4.448796848     -0.953682597     -1.687245959
H        1.130474817      2.789483535      0.665870553
H        2.746655789      2.113993040      0.560255472
H        1.210575185      3.344718723     -1.831161285
H        2.527320700      4.137736139     -0.948783078
H        2.851290970      2.681661735     -1.907465035
H       -4.770325926      0.619950873     -0.066146595
H       -4.249717926     -0.601709127      1.096783405
H       -3.749445926      1.082828873      1.318475405
H       -2.106394926     -1.418545127     -1.847645595
H       -3.056095926     -2.124797127     -0.520234595
H       -3.849149926     -1.109040127     -1.724070595
Li      -4.416066069      0.429351096     -1.691196439
