17
LiC6H10
C       -1.823558180     -0.078861554      0.360416197
C       -0.534742369     -0.228473033      0.057952553
C        0.439578082      0.892700225     -0.266304067
C        1.820035417      0.225052842     -0.212402800
C        1.537990108     -1.195988865     -0.711059755
C        0.213390832     -1.549589575     -0.022061398
H       -2.390763180      0.851750446      0.283597197
H       -2.390770180     -1.009473554      0.437184197
H        0.242776520      1.254397794     -1.289977556
H        0.333470154      1.753898958      0.407990469
H        2.581252058      0.753303777     -0.802441642
H        2.175237939      0.184805041      0.830118782
H        1.398227144     -1.180756404     -1.804162338
H        2.345969064     -1.906410941     -0.489434236
H        0.413096265     -1.911522647      1.000967354
H       -0.362481760     -2.331678176     -0.536166323
Li      -3.024835268     -0.022634423     -1.549510731
