28
LiC11NH15
C        1.407222710     -0.630208812     -0.355455206
C        0.295608710     -1.081328812      0.593640794
C       -1.059964290     -0.577977812      0.165769794
C       -1.888032290     -1.350687812     -0.656102206
C       -3.119170290     -0.864067812     -1.093481206
C       -3.541694290      0.409386188     -0.714935206
C       -2.724252290      1.191141188      0.101603794
C       -1.494061290      0.701282188      0.537077794
N        1.533797710      0.821582188     -0.386740206
C        2.897275710      1.197181188     -0.774506206
C        3.696489710     -0.120507812     -0.752442206
C        2.809855710     -1.061977812      0.064568794
H        1.193866710     -1.058903812     -1.359660206
H        0.288235710     -2.181648812      0.636576794
H        0.536906710     -0.702060812      1.598472794
H       -1.563490290     -2.351526812     -0.952336206
H       -3.753249290     -1.484181812     -1.729638206
H       -4.506404290      0.790679188     -1.053449206
H       -3.048470290      2.188361188      0.404511794
H       -0.846825290      1.314970188      1.167618794
H        0.813520710      1.268217188     -0.944991206
H        2.943109710      1.668139188     -1.770803206
H        3.311410710      1.926282188     -0.058494206
H        3.803473710     -0.515677812     -1.773680206
H        4.705670710     -0.000753812     -0.336639206
H        2.933173710     -0.873417812      1.143247794
H        3.004149710     -2.126366812     -0.125913206
Li       1.211114673      1.547766555      1.534398239
