16
LiC7H4OF3
O       -0.075187556      2.214118393      0.142820979
C       -0.681477672      1.128402342      0.177636425
C       -2.130340078      1.016290124      0.199918450
C       -2.788636355     -0.195145648      0.238266017
C       -2.093093950     -1.419732650      0.258590269
C       -0.701110890     -1.373107983      0.238553780
C       -0.010913510     -0.163897986      0.199834767
C        1.476035990     -0.146095694      0.179156130
F        2.005566033     -1.395876616      0.202222779
F        1.997492752      0.435913658     -0.914635041
F        2.026687824      0.487841856      1.228885308
H       -2.682195814      1.959832439      0.184440838
H       -3.884384560     -0.203453285      0.253302354
H       -2.624006205     -2.372203381      0.288912889
H       -0.124206462     -2.301450983      0.253245548
Li       0.334166874      2.787951910      2.004869595
