12
LiC3H5S2O
C       -0.829063675     -2.958741967     -0.000193227
C        0.139321190     -1.791174615     -0.000400250
O       -0.630502448     -0.615230329     -0.000254563
C       -0.017849300      0.614969632     -0.000389949
S       -1.101036222      1.900657166     -0.000181647
S        1.674936790      0.677136004     -0.000734074
H       -0.285669105     -3.915693955     -0.000294925
H       -1.475505401     -2.920181778      0.888420646
H       -1.475866053     -2.920197728     -0.888545317
H        0.805832168     -1.812268235      0.878046682
H        0.805475535     -1.812284007     -0.879117281
Li       2.401282411      3.068036901      0.031139712
