25
LiSiC7H14O2
C        1.711785941      0.085316782      0.966639623
Si       1.323813070     -0.206659918     -0.839307185
O       -0.275374099     -0.779191872     -0.963775937
C       -1.384920951     -0.161051864     -0.593269222
C       -1.614416738      1.053426642     -0.060006609
C       -3.109148804      1.230454833      0.048788219
C       -3.579095862     -0.219209743     -0.179477036
O       -2.493980260     -0.903293811     -0.809005395
C        1.496755443      1.348519149     -1.864705636
C        2.343091682     -1.599554717     -1.541328816
H        1.571284117     -0.844208485      1.537923831
H        2.757787322      0.405631293      1.088012836
H        1.063930694      0.855157779      1.408156314
H       -0.999998738      1.948143642     -0.021100609
H       -3.446655687      1.605120798      1.025989425
H       -3.502206977      1.919749370     -0.718627792
H       -3.783897729     -0.720881771      0.780306385
H       -4.462208456     -0.310318609     -0.823448083
H        2.546049202      1.680969326     -1.875407065
H        1.190748071      1.154940706     -2.903365343
H        0.881892573      2.172897199     -1.477810321
H        2.174153805     -2.526151524     -0.974180724
H        2.069304044     -1.787833977     -2.589543943
H        3.416492894     -1.361911488     -1.502318362
Li      -1.544147452      0.893114668      2.190195892
