20
LiC7NH8SO2
C        4.725407882     -0.000709575      0.182718110
C        3.217091470     -0.000184087      0.144114814
C        2.500941040     -1.202708232      0.106798949
C        1.108783245     -1.206179496      0.036364707
C        0.417114642      0.000536193      0.011264392
C        1.109303854      1.206851412      0.037491230
C        2.501539980      1.202653665      0.107818996
S       -1.390062054      0.000813288     -0.054880057
N       -1.703221567     -0.007897042      1.474562281
Li      -3.764771390     -0.011100948      1.743342970
O       -1.735455672      1.240494668     -0.792898832
O       -1.735210845     -1.230558969     -0.806745676
H        5.151386764     -0.005026440     -0.834025412
H        5.111968003      0.891477467      0.696116377
H        5.111193506     -0.889132652      0.703226615
H        3.047918071     -2.150046501      0.131894641
H        0.527650512     -2.129206872     -0.009331555
H        0.528515574      2.130135977     -0.007354818
H        3.048966378      2.149705318      0.133726877
H       -1.022135660     -0.011374018      2.206757541
