29
LiC14NH13
C       -0.068844716      3.277933706      0.548382291
N       -0.052052947      1.836490822      0.484279787
C       -1.247910564      1.149203928      0.221646687
C       -2.410607636      1.809684361     -0.199175464
C       -3.571750602      1.085548821     -0.466571210
C       -3.588062937     -0.300038128     -0.340907824
C       -2.427937293     -0.957295321      0.071368770
C       -1.265852195     -0.252281247      0.367303869
C       -0.021480221     -0.909935931      0.903942560
C        1.210242946     -0.223701080      0.373951105
C        2.389867353     -0.901681415      0.084308993
C        3.536710613     -0.217788522     -0.321765040
C        3.489092408      1.167061456     -0.447593252
C        2.310119781      1.864179638     -0.186487165
C        1.160736366      1.177002246      0.228107735
H       -0.960413636      3.604991012      1.097828579
H        0.812023371      3.625423637      1.102526359
H       -0.071761462      3.759906757     -0.447027826
H       -2.412488318      2.889449092     -0.340681036
H       -4.467052645      1.618176515     -0.791452463
H       -4.493639314     -0.866371193     -0.559719777
H       -2.424909188     -2.044080048      0.183363848
H       -0.025422601     -0.825163698      2.007504215
H       -0.008459376     -1.982811431      0.666636099
H        2.411329161     -1.988253290      0.196354607
H        4.456284014     -0.763050839     -0.535669190
H        4.373593282      1.720238511     -0.767680609
H        2.287829450      2.943712099     -0.328030655
Li      -0.033935538     -0.642111655      4.390468646
