12
LiC4NH4O2
O        2.278867482      0.572075583     -0.029544348
C        1.113616513      0.203099290      0.015739765
C        0.756027908     -1.308530747     -0.114172131
C       -0.755139071     -1.314019121     -0.007035110
C       -1.101748772      0.195068494      0.172654523
O       -2.264357499      0.555573004      0.292576991
N        0.008716228      0.965218494      0.172689523
H        1.151361148     -1.679578394     -1.072131020
H        1.276500522     -1.860059286      0.683683003
H       -1.278979959     -1.688480942     -0.899793586
H       -1.153834086     -1.868820554      0.856034491
Li       0.025545364      3.033379328      0.384038867
