17
LiC6H7O3
O       -2.417708117      0.495285009     -0.179933152
C       -1.265911117      0.109583009     -0.080724152
O       -1.084312117     -1.271995991     -0.109097152
C        0.137719883     -1.755730991      0.387787848
C        1.318161883     -1.068411991     -0.262808152
C        1.216191883      0.448322009     -0.067102152
C       -0.107539117      0.939106009      0.055206848
C       -0.344041371      2.413109267      0.215819579
O        2.259258883      1.117603009     -0.059954152
H        0.186848883     -1.594413991      1.482834848
H        0.139166883     -2.842574991      0.205071848
H        2.273794883     -1.406183991      0.165496848
H        1.335160883     -1.289164991     -1.344324152
H       -0.880435415      2.845141972     -0.648099263
H       -0.959308111      2.643702794      1.103096574
H        0.628860813      2.914394028      0.314762099
Li      -0.181915790      1.405102944      2.262323511
