20
LiC8H6O4Cl
O        2.888060314      1.162859985      0.015635724
C        2.530880533     -0.000226682      0.015351721
O        3.241976566     -1.081709115      0.015404843
O        4.640402737     -0.937736563      0.015281983
C        1.054626457     -0.350033536      0.016133729
C        0.134102407      0.702811709      0.016564712
C       -1.227924081      0.444547560      0.017252014
Cl      -2.373372385      1.762175341      0.017771414
C       -1.719381965     -0.871674231      0.017538225
O       -3.066893779     -1.035327445      0.018205911
C       -3.568681462     -2.338822997      0.018507018
C       -0.795333873     -1.921778013      0.017110588
C        0.575446994     -1.660048263      0.016419333
H        0.518751226      1.723275907      0.016331322
H       -3.251364080     -2.901134030     -0.876989945
H       -3.250459605     -2.901066177      0.913725830
H       -4.662247684     -2.256368510      0.019056362
H       -1.142041813     -2.954992132      0.017310112
H        1.299544887     -2.474337361      0.016074609
Li       5.477994039     -2.743981784      0.015397851
