30
LiSnC8H20
C        3.028829347     -0.623964376     -0.108822247
C        1.776272615     -0.598622696      0.770007713
Sn      -0.046477655     -0.566687218     -0.419615432
C       -0.029637422      1.236972446     -1.638290889
C        0.006333933      2.503305736     -0.779810415
C       -0.097632575     -2.374566294     -1.631060053
C       -0.109287941     -3.637909636     -0.767514791
C       -1.834913237     -0.530532330      0.820881501
C       -3.111785959     -0.508180598     -0.022314275
H        3.955211386     -0.640214146      0.486242456
H        3.046396163     -1.511679532     -0.760945080
H        3.079749967      0.259842957     -0.764491945
H        1.748894046     -1.477391418      1.433101021
H        1.782041068      0.283201049      1.429576053
H        0.840859226      1.199086563     -2.311697923
H       -0.919561211      1.232280000     -2.286897411
H        0.015029933      3.420136573     -1.389642633
H       -0.869297550      2.564612994     -0.114136327
H        0.902051841      2.531212487     -0.139090803
H       -0.986797952     -2.338975960     -2.279747227
H        0.773622485     -2.372169397     -2.304547738
H        0.784793028     -3.696948303     -0.126621101
H       -0.986556363     -3.663547795     -0.101666626
H       -0.135154402     -4.556851791     -1.373671519
H       -1.822012962     -1.410060526      1.483407368
H       -1.788865940      0.350531941      1.479882400
H       -3.181156064     -1.394256522     -0.673212355
H       -4.020997537     -0.489819510      0.598609967
H       -3.147802261      0.377265967     -0.676759220
Li       1.794560502      2.197047792      2.861055676
