6
LiNH3O
N       -0.621300814      0.000055692     -0.150809018
O        0.768645715      0.000155075     -0.391194506
H       -0.998324814      0.810844692     -0.644600018
H       -0.998348814     -0.810370308     -0.645172018
H        1.148124668     -0.000253121      0.493631072
Li      -0.953263617     -0.000708009      1.901516763
