16
LiC5NH9
C        2.216788894      0.018986263     -0.172905743
C        0.722103502     -0.021803637     -0.126610717
N        0.057872172     -1.104389063     -0.161384505
C       -1.366175753     -0.799972416     -0.050499906
C       -1.514407198      0.714989500     -0.302046719
C       -0.110698088      1.241981951      0.016465824
H        2.616227713     -0.998551942     -0.250409972
H        2.559072664      0.615602988     -1.032111869
H        2.614396681      0.500266511      0.733831167
H       -1.942645926     -1.415577475     -0.755758171
H       -1.700557228     -1.086652786      0.961396610
H       -1.747694771      0.895364690     -1.361475730
H       -2.307259984      1.179539518      0.297842392
H       -0.021371824      1.615170366      1.051630871
H        0.230901598      2.050817436     -0.645789917
Li       0.895786219     -2.992135112      0.076430347
