28
LiC9H13O5
O       -1.042256001      2.134761164      0.737323370
C       -0.057524824      1.522084501      0.331844426
C        1.154778107      2.379098863     -0.055198904
C       -0.002959453      0.076868212      0.205885922
C       -1.242717453     -0.686011788      0.365229922
O       -2.321516453     -0.065529788     -0.200936078
C       -3.576699453     -0.614382788      0.106792922
C       -4.626091453      0.356135212     -0.396204078
O       -1.395653453     -1.761834788      0.899998922
C        1.182069547     -0.723151788      0.045650922
O        2.363628547     -0.006216788      0.165385922
C        3.538636547     -0.744526788     -0.052976078
C        4.709178547      0.208511212      0.084875922
O        1.261449547     -1.915044788     -0.181603078
H        1.926994016      2.327789402      0.724253724
H        1.624406269      2.044957361     -0.989071191
H        0.788595543      3.410038733     -0.145297168
H       -3.687240453     -1.610401788     -0.356946078
H       -3.663127453     -0.771695788      1.194678922
H       -4.473925453      1.336296212      0.076299922
H       -4.533460453      0.488687212     -1.483687078
H       -5.640594453     -0.004196788     -0.169327078
H        3.607069547     -1.574244788      0.669869922
H        3.517388547     -1.213972788     -1.051027078
H        5.663100547     -0.315220788     -0.075516078
H        4.627456547      1.023634212     -0.648547078
H        4.719738547      0.657952212      1.088279922
Li      -0.281061884      0.183862786     -2.031357963
