23
LiC8H14
C       -0.209848079     -1.396822150      3.036409063
C       -0.000369229     -0.436188775      1.905337999
C       -0.799320861     -0.317383464      0.843900877
C       -0.594345380      0.651426796     -0.293722495
C       -1.763443189      1.644195344     -0.372098618
H        0.336662198      1.211775015     -0.106909113
C       -0.444799783     -0.092605979     -1.597120572
C        0.623960944     -0.040343860     -2.393428526
C        0.767126687     -0.777389499     -3.690458563
H       -0.303800941     -0.866302634      3.996545049
H       -1.117787783     -1.996634823      2.884490821
H        0.644299371     -2.084592357      3.134847378
H        0.882869280      0.211748279      1.965398182
H       -1.686265888     -0.962107057      0.770069577
H       -1.611169405      2.360985523     -1.191519354
H       -2.709283879      1.111776228     -0.558494477
H       -1.867210465      2.198647458      0.571427223
H       -1.299483039     -0.716874597     -1.893087257
H        1.471120877      0.584718245     -2.084952714
H       -0.130888124     -1.370909479     -3.910713722
H        0.934120652     -0.081421510     -4.527047340
H        1.631915558     -1.458412712     -3.665290747
Li       2.354769499      2.426419085      0.298038666
