28
LiC11NH15
C        1.453452352      1.944299707     -0.927777171
N        1.659684352      0.697666707     -0.232187171
C        3.030964352      0.225134707     -0.263526171
C        2.944867352     -1.213062293      0.263057829
C        1.482435352     -1.628450293     -0.015474171
C        0.863467352     -0.411531293     -0.733535171
C       -0.617300648     -0.244560293     -0.485562171
C       -1.554316648     -0.684314293     -1.422610171
C       -2.921561648     -0.575682293     -1.166458171
C       -3.364453648     -0.016294293      0.030259829
C       -2.433822648      0.432697707      0.969065829
C       -1.069765648      0.317330707      0.714084829
H        1.707308352      1.869523707     -2.008349171
H        0.403026352      2.256951707     -0.842837171
H        2.082240352      2.728819707     -0.482899171
H        3.423460352      0.229204707     -1.305674171
H        3.683220352      0.876205707      0.337415829
H        3.673805352     -1.867091293     -0.232682171
H        3.153930352     -1.243074293      1.340170829
H        1.394522352     -2.537567293     -0.624844171
H        0.940039352     -1.806149293      0.923203829
H        1.019931352     -0.527755293     -1.832052171
H       -1.207330648     -1.113317293     -2.366088171
H       -3.642367648     -0.925054293     -1.907669171
H       -4.433211648      0.074681707      0.230375829
H       -2.775954648      0.877111707      1.905504829
H       -0.329328648      0.674029707      1.433390829
Li       1.079946621      1.207295728      1.698207458
