18
LiC9NH6O
O        1.264662367      1.538013962     -0.434003119
C        0.977127367      0.350737962     -0.220779119
C       -0.515139633      0.010297962     -0.165989119
C       -1.403126633      1.082137962     -0.016126119
C       -2.779676633      0.875570962      0.037035881
C       -3.300147633     -0.414819038     -0.075523119
C       -2.427449633     -1.490287038     -0.244569119
C       -1.049248633     -1.278483038     -0.289150119
C        1.867477367     -0.715502038      0.001688881
H        1.511213367     -1.709959038      0.262297881
C        3.266984367     -0.532193038     -0.029860119
N        4.427136367     -0.423947038     -0.050890119
H       -0.957693633      2.076550962      0.045343881
H       -3.455632633      1.725375962      0.161292881
H       -4.379233633     -0.581206038     -0.040685119
H       -2.824225633     -2.503014038     -0.350307119
H       -0.377586633     -2.123654038     -0.446331119
Li       1.579409907     -1.911166933     -1.890783469
