52
LiSi4C13H34
C        2.886446224      1.177159401     -1.429113997
C        2.326830772     -0.133185989     -1.909474700
C        3.119277304     -1.142184063     -2.291947465
C        0.830643561     -0.253677641     -1.889881094
Si       0.045645013     -0.216779534     -0.120132130
Si      -0.374495104      1.960703524      0.676374228
C       -0.890566826      3.075209469     -0.761957022
C       -1.792149410      1.853842530      1.928447582
C        1.086848970      2.764353775      1.573536126
Si      -2.045724182     -1.276997035     -0.364371987
C       -1.841971397     -2.807200968     -1.459735056
C       -2.759380322     -1.826733252      1.298049158
C       -3.269408310     -0.114364517     -1.223063734
Si       1.344704077     -1.404899763      1.442349305
C        3.125658429     -0.780799570      1.553151400
C        0.558403814     -1.176500645      3.150310275
C        1.357519737     -3.240031446      0.989014796
H        2.443696302      2.018759931     -1.986690521
H        2.637217897      1.329548039     -0.365816192
H        3.978322167      1.220607730     -1.534573476
H        4.207042304     -1.060115063     -2.231393465
H        2.701961304     -2.106849063     -2.591065465
H        0.370279128      0.568623047     -2.465751645
H        0.523358780     -1.197251802     -2.365968478
H       -1.752130272      2.653477559     -1.301199800
H       -1.170580099      4.076380258     -0.398650077
H       -0.066302350      3.195711211     -1.481273072
H       -1.523353305      1.193406102      2.767402079
H       -2.014668999      2.850751735      2.340362093
H       -2.713374872      1.462418315      1.471932389
H        1.927765095      2.977092341      0.898084898
H        0.762379309      3.719928808      2.015250429
H        1.454981663      2.125967136      2.391139646
H       -1.066265576     -3.484424800     -1.071631892
H       -2.789104678     -3.367112773     -1.510706882
H       -1.564095319     -2.526016988     -2.486770483
H       -2.831088752     -0.992243719      2.011150423
H       -3.769428661     -2.242964761      1.157136928
H       -2.134918382     -2.611412510      1.752324676
H       -2.868687021      0.216930828     -2.193698848
H       -4.225296684     -0.628693428     -1.409580593
H       -3.479656221      0.781831284     -0.620372758
H        3.159127611      0.281462443      1.839157517
H        3.670581562     -1.354232826      2.320010119
H        3.650327616     -0.900855989      0.594292301
H       -0.502258082     -1.467214666      3.163732117
H        1.089583644     -1.786883571      3.897846283
H        0.626778597     -0.124985911      3.470925838
H        1.771613201     -3.382594723     -0.021011139
H        1.972820130     -3.817043799      1.696903005
H        0.338762027     -3.656860298      1.004435340
Li       3.538994326     -0.950061054     -4.501240422
