18
LiC5N2H10
C        2.501171813      0.676002160      0.033971525
C        1.002483162      0.600263920     -0.089391148
N        0.423986136     -0.536948357     -0.134282159
C       -1.022391737     -0.552751025     -0.253779185
C       -1.700144496      0.684644427      0.333987245
C       -1.067075215      1.935726765     -0.262918383
N        0.370530785      1.822626438     -0.139273656
H        2.897596537     -0.341224116      0.105067161
H        2.936747849      1.177699142     -0.843413676
H        2.787787520      1.247995954      0.929319513
H       -1.294492495     -0.650609815     -1.321048503
H       -1.403309064     -1.460790907      0.237762571
H       -2.782247913      0.673902986      0.141607468
H       -1.552766541      0.693793413      1.425477417
H       -1.373564959      2.041657995     -1.320018951
H       -1.408056746      2.837628393      0.267094636
H        0.936511129      2.658102591     -0.144927362
Li       1.510746569     -2.307229811     -0.048863583
