17
LiC7H8O
C       -2.661312660      0.338004114     -0.679587877
O       -1.677362610     -0.652805916     -0.555788366
C       -0.400722840     -0.266076823     -0.333729514
C        0.546253855     -1.293856133     -0.217208971
C        1.880481862     -0.988545084      0.011218192
C        2.295466340      0.341858884      0.127548315
C        1.353534884      1.357546812      0.011407927
C        0.005722218      1.067107621     -0.218699096
H       -2.457126621      1.008660835     -1.531107710
H       -3.610635736     -0.180796896     -0.853141728
H       -2.745139956      0.943734545      0.238355433
H        0.199003044     -2.323208342     -0.311477628
H        2.607071776     -1.797968640      0.099855500
H        3.359091340      0.581490884      0.127528315
H        1.662127004      2.400731834      0.099880756
H       -0.710843545      1.882561290     -0.305502246
Li       2.658344294      0.430477116      2.353422390
