38
LiC13N4H20
C        3.938081694     -0.969072056      1.129666987
C        3.676047112     -0.471944674     -0.291830545
N        2.426792779      0.242105889     -0.456411872
C        2.393336116      1.608612315      0.010169250
C        1.229595623      2.338075354     -0.638470650
N        0.001751201      1.659322758     -0.305491098
C       -1.225495110      2.339215776     -0.638354320
C       -2.389850363      1.610834327      0.010397783
N       -2.424621693      0.244358770     -0.456177974
C       -3.674523085     -0.468528570     -0.291474375
C       -3.936878448     -0.965415404      1.130047685
C       -1.215341305     -0.452128349     -0.459689845
C       -1.141996407     -1.854097850     -0.538134348
N       -0.000206386     -2.525684167     -0.581658772
C        1.142211344     -1.855159050     -0.538244436
C        1.216866430     -0.453258223     -0.459806069
C        0.001098481      0.265230165     -0.410274676
H        3.139012602     -1.647096617      1.461506052
H        4.893748369     -1.509463014      1.184175673
H        3.983976806     -0.127335056      1.836203274
H        4.481088401      0.212839398     -0.601754361
H        3.701908649     -1.309560320     -1.004050252
H        2.289663781      1.680965268      1.111172372
H        3.338750424      2.096622975     -0.270269223
H        1.172551281      3.369855042     -0.258379689
H        1.394313985      2.387862623     -1.733724727
H       -1.167455464      3.370941914     -0.258269902
H       -1.390270712      2.389154129     -1.733592349
H       -2.286005719      1.683092865      1.111390735
H       -3.334837848      2.099724145     -0.269950663
H       -4.478957620      0.217003487     -0.601317633
H       -3.701234543     -1.306118879     -1.003692628
H       -4.893041563     -1.504916000      1.184650337
H       -3.138406715     -1.644183485      1.461805855
H       -3.981919327     -0.123637982      1.836590516
H       -2.055568281     -2.451673166     -0.562041793
H        2.055226271     -2.453582053     -0.562240993
Li      -0.001176576     -4.600775114     -0.709085681
