22
LiC9H10O2
C        2.501616634     -0.993252464      1.733847295
C        2.501488511      0.556596284      1.744739562
O        2.027805446      0.905181022      0.458769114
C        1.312593173     -0.206265279     -0.002254471
O        2.028346428     -1.323780933      0.442971472
C       -0.119129282     -0.210297693      0.519414845
C       -0.781223818     -1.419732337      0.743283036
C       -2.097645338     -1.422652479      1.201573257
C       -2.758633735     -0.217429456      1.438773562
C       -2.098163929      0.991340905      1.218813354
C       -0.781738569      0.995529981      0.760537057
H        3.501401897     -1.429435096      1.856956622
H        1.834736900     -1.397768938      2.513347073
H        1.834784706      0.950012758      2.530046121
H        3.501248811      0.991154179      1.873687231
H        1.333829363     -0.198474699     -1.102141905
H       -0.248299679     -2.355414677      0.564245348
H       -2.609367153     -2.370346353      1.377312030
H       -3.788861794     -0.220219225      1.798459368
H       -2.610291731      1.936208767      1.408062326
H       -0.249214813      1.933898835      0.594879537
Li       1.379964777     -0.181549740     -3.491636636
