15
LiC5N2H5O2
C       -2.471510393      0.695595309      0.231191837
N       -1.054522221      0.448781977      0.180739009
C       -0.174721237      1.491988708      0.229318623
C        1.156102941      1.293523718      0.184216664
C        1.671022132     -0.098204579      0.078947550
O        2.886363008     -0.287191951      0.037342661
N        0.754696823     -1.104767277      0.033755858
C       -0.565564146     -0.915401517      0.078029816
O       -1.426492849     -1.793712891      0.040047722
H       -2.807645308      1.321081556     -0.615088080
H       -2.964392851     -0.281147707      0.177434463
H       -2.765034866      1.201375701      1.168447610
H       -0.625821561      2.487662718      0.306577854
H        1.867690753      2.117527785      0.222191474
Li       1.453526029     -3.057267449     -0.113287736
