13
LiC4N2H6
C       -2.016210132     -0.059263431     -0.133900445
N       -0.570789500     -0.044569191     -0.127874955
C        0.260443703     -1.136898917     -0.121408406
C        1.537245715     -0.626879267     -0.114614568
N        1.504155172      0.739435840     -0.116517683
C        0.234949518      1.053927643     -0.124243347
H       -2.405711319     -0.549300419      0.768952767
H       -2.380318456      0.974751714     -0.156857398
H       -2.396096996     -0.585280166     -1.020313435
H       -0.123139281     -2.153179130     -0.122696088
H        2.474747726     -1.178501186     -0.108884831
H       -0.177680839      2.063102626     -0.127983406
Li       3.117917111      2.050143182     -0.108793081
