26
LiC10NH10O4
O        2.301387291     -1.572758615      0.468050816
C        2.356815291     -0.351191615      0.468025816
C        1.310464291      0.615167385      0.468168816
H        1.625612291      1.658575385      0.468296816
C       -0.062763709      0.328341385      0.468150816
C       -1.015162709      1.405734385      0.468281816
C       -2.372116709      1.193535385      0.468249816
C       -2.874278709     -0.120896615      0.468088816
N       -4.283642709     -0.347057615      0.468050816
O       -5.034003709      0.620026385      0.468146816
O       -4.695712709     -1.498763615      0.467917816
C       -1.979695709     -1.207666615      0.467963816
C       -0.620189709     -0.998440615      0.467992816
O        3.602592291      0.258080385      0.468315816
C        4.699592291     -0.619822615      0.468432816
C        5.960704291      0.220770385      0.468850816
H       -0.631688709      2.428872385      0.468407816
H       -3.079829709      2.021779385      0.468350816
H       -2.392883709     -2.216045615      0.467838816
H        0.069237291     -1.840118615      0.467891816
H        4.659484291     -1.283264615      1.348844816
H        4.659895291     -1.282990615     -0.412207184
H        5.987840291      0.867421385     -0.419771184
H        5.987439291      0.867148385      1.357684816
H        6.857111291     -0.416347615      0.468953816
Li       0.770876842      1.114268994     -1.665792751
