17
LiC4NH11
C        1.251567476     -0.517566874     -0.481590061
C        0.000004484      0.281904651     -0.118913157
C       -0.000025317      1.617524961     -0.876075254
C       -1.251549524     -0.517600953     -0.481550623
N        0.000024300      0.466040774      1.334681089
H        2.160702479      0.041455480     -0.208345730
H        1.259634333     -1.471260473      0.063908340
H        1.291079608     -0.720826031     -1.561578851
H       -0.000030179      1.468540246     -1.966710028
H       -0.891367310      2.209214607     -0.613965788
H        0.891298690      2.209244536     -0.613974350
H       -1.259566667     -1.471299493      0.063938744
H       -2.160688521      0.041392220     -0.208258728
H       -1.291102392     -0.720846092     -1.561541333
H        0.814606300      1.016972774      1.606027089
H       -0.814528700      1.017005774      1.606047089
Li      -0.000004586     -1.399045734      2.253208888
