50
LiBC18H22O2F6
C       -3.544408604     -0.102767805     -2.407897506
C       -3.315343875     -0.335426105     -0.917247601
O       -2.272341386      0.487896406     -0.473554289
C       -4.598282523      0.006613318     -0.145280202
C       -2.802460233     -1.773797587     -0.555629932
C       -3.907486709     -2.806853179     -0.357568721
C       -1.804864947     -2.287138851     -1.604066594
O       -2.143986946     -1.561211594      0.665036901
B       -1.556693300     -0.200465265      0.632521359
C        0.045480113     -0.235992296      0.280535468
C        0.666823761      0.845816574     -0.360072925
C        2.038799321      0.853694398     -0.616990566
C        2.642905437      2.059526059     -1.271872389
F        2.586737216      3.142724142     -0.484071226
F        3.935095912      1.883078910     -1.586317455
F        2.011524569      2.387778551     -2.405782614
C        2.840444295     -0.229824295     -0.259381514
C        2.233370650     -1.319286367      0.360932901
C        3.046503571     -2.516526435      0.752744589
F        4.333767545     -2.404448382      0.394466277
F        3.034094285     -2.726059236      2.076856541
F        2.586549706     -3.643570529      0.193846999
C        0.860926222     -1.318830445      0.628244928
C       -1.778302167      0.549207082      2.092202448
C       -1.132432079      1.889959256      2.134365373
C       -1.719732929      3.067650735      1.889731532
C       -0.999820929      4.383181735      1.818735532
H       -2.601320663     -0.197845492     -2.961183247
H       -4.278567499     -0.814626330     -2.819654129
H       -3.925482607      0.917959585     -2.563261303
H       -5.482339770     -0.516510658     -0.543766713
H       -4.478609566     -0.252851089      0.915959667
H       -4.762706161      1.091887131     -0.218771161
H       -4.533657753     -2.901974971     -1.259609093
H       -3.457363319     -3.787641087     -0.141342517
H       -4.542602313     -2.530453070      0.493875188
H       -1.048581291     -1.519060115     -1.820136959
H       -1.288449452     -3.166739436     -1.190976505
H       -2.300470228     -2.575395222     -2.544549898
H        0.046361460      1.694689244     -0.664223551
H        3.909649664     -0.227518094     -0.466620808
H        0.395539997     -2.186850530      1.106507623
H       -2.865436344      0.639580117      2.250798847
H       -1.370547319     -0.104491270      2.883052057
H       -0.043977377      1.900583279      2.295162140
H       -2.801983929      3.080684735      1.709446532
H       -1.364453929      5.102084735      2.572624532
H        0.080753071      4.244659735      1.973263532
H       -1.134018929      4.863234735      0.834741532
Li      -2.420896203      3.958554983      3.841322853
