11
LiC4N2H3O
O        2.644358498     -0.350679061     -0.143864637
C        1.707416416      0.425868716     -0.147253731
C        0.291957511      0.153086402     -0.155811028
C       -0.722598880      1.134337258     -0.158744574
N       -1.920927080      0.540913102     -0.167288755
C       -1.594533128     -0.780128976     -0.169209660
N       -0.304805637     -1.080121257     -0.162027064
H        1.915250328      1.535689449     -0.143132089
H       -0.604678413      2.221996267     -0.155166198
H       -2.370472043     -1.553149510     -0.175642884
Li      -3.806312851      1.416980631     -0.175485072
