20
LiC9NH9
C       -3.196166667      0.061423730      1.373892584
C       -1.765908324      0.172727069      0.962163893
C       -1.086821156      1.217529948      0.389381275
C        0.274116816      0.793119577      0.199598090
C        1.430472110      1.394056760     -0.327419532
C        2.613023289      0.670751543     -0.357495453
C        2.670789083     -0.650399892      0.130097242
C        1.547660434     -1.271330508      0.656114139
C        0.355910608     -0.537282681      0.684505979
N       -0.894874231     -0.883038867      1.138599409
H       -3.704563132     -0.754201592      0.837056398
H       -3.287516014     -0.137159910      2.452842713
H       -3.723858266      0.996367599      1.153053333
H       -1.447433156      2.242674948      0.389226275
H        1.394956910      2.416595409     -0.707186870
H        3.515756103      1.128346288     -0.764535449
H        3.615409714     -1.195143798      0.093469632
H        1.592503769     -2.294158331      1.033509749
H       -1.142286784     -1.775280282      1.542136913
Li      -1.369822682      1.139185885     -1.848434925
