14
LiC5H8
C        2.181593422     -0.241868737      0.255756798
C        0.901325771     -0.364603975     -0.113902671
C        0.007767352      0.770497480     -0.337239517
C       -1.278134402      0.670270344     -0.707840140
C       -2.011846772     -0.621731628     -0.954311031
H        2.646250422      0.747944263      0.255804798
H        2.844910422     -1.108232737      0.255889798
H        0.485371066     -1.366254178     -0.261228752
H        0.439340433      1.764758732     -0.185637223
H       -1.842290666      1.597454101     -0.842926245
H       -1.538902424     -1.207171442     -1.757940974
H       -2.026235343     -1.255461232     -0.054079626
H       -3.052717671     -0.437390237     -1.246794002
Li       3.466401108     -0.067900905     -1.591688303
