25
LiC11NH10O2
O        1.919904711     -1.393577208      0.098000349
C        1.968606711     -0.169159208      0.097936349
C        0.924046711      0.790796792      0.097865349
H        1.231863711      1.836427792      0.097804349
C       -0.453298289      0.494213792      0.097870349
C       -1.000184289     -0.832682208      0.097950349
C       -2.360851289     -1.052685208      0.097954349
C       -3.287941289      0.013979792      0.097878349
C       -4.694959289     -0.226325208      0.097883349
N       -5.839873289     -0.419508208      0.097887349
C       -2.773043289      1.329135792      0.097796349
C       -1.415224289      1.557201792      0.097792349
O        3.218609711      0.441873792      0.097912349
C        4.312925711     -0.436731208      0.097954349
C        5.575774711      0.402015792      0.097864349
H       -0.304136289     -1.669213208      0.098009349
H       -2.739544289     -2.077713208      0.098018349
H       -3.468163289      2.171963792      0.097736349
H       -1.044541289      2.585330792      0.097728349
H        4.274308711     -1.100862208      0.978276349
H        4.274266711     -1.100995208     -0.782262651
H        6.471971711     -0.235692208      0.097891349
H        5.603166711      1.048777792     -0.790790651
H        5.603207711      1.048907792      0.986424349
Li       0.382970054      1.288124477      2.231863996
