41
LiSiC12H26O
C       -3.737235834      0.560991553     -0.628530316
C       -2.986890834     -0.607058447     -1.190140316
C       -1.667171189     -0.614948270     -1.398574369
O       -0.849280119      0.399266339     -1.023454222
Si       0.691176867      0.207584727     -0.339162830
C        1.383052049      1.967718147     -0.248169240
C        0.831323518      2.832455362     -1.390116345
C        1.167393674      2.668290608      1.098189999
C        0.459913646     -0.649386958      1.336610939
C       -0.765946967     -0.089026673      2.071558239
C        0.322816081     -2.170708013      1.186740154
C        1.737595122     -0.876487217     -1.486356015
C        1.823751754     -0.316131702     -2.909339236
C        3.135604494     -1.108246737     -0.898878153
H       -4.431348834      0.244560553      0.165968684
H       -3.041867834      1.300316553     -0.210567316
H       -4.342426834      1.055967553     -1.403726316
H       -3.547977834     -1.425675447     -1.646379316
H       -1.182845899     -1.451390670     -1.920355687
H        2.472889087      1.853139422     -0.396497321
H       -0.257299679      2.950611267     -1.289078197
H        1.289477878      3.834189023     -1.373609864
H        1.016500526      2.391753242     -2.379781346
H        0.097870807      2.868242466      1.268625637
H        1.538920782      2.075650928      1.947606637
H        1.685272184      3.640327554      1.116045227
H        1.362240919     -0.439266392      1.940206382
H       -1.681776024     -0.281313758      1.490608363
H       -0.885631396     -0.571698215      3.054616026
H       -0.699655720      0.995031310      2.236950535
H       -0.546181267     -2.425564119      0.558302283
H        1.211623783     -2.634648247      0.735226068
H        0.162043128     -2.644639281      2.168341870
H        1.223724869     -1.853909437     -1.532107821
H        2.393831772      0.626417802     -2.925227357
H        2.341098540     -1.019068986     -3.581587864
H        0.829246233     -0.110004922     -3.333360988
H        3.101053618     -1.538919378      0.113748368
H        3.722314522     -1.793115836     -1.531373736
H        3.699336820     -0.163594850     -0.836680798
Li      -4.006039515      0.337852905     -2.968489974
