25
LiSiC7H14O2
C        1.815751648      0.815037926      1.273241612
Si       1.743216652     -0.079037891     -0.367667990
C        1.887075702      1.089428371     -1.821602015
C        3.012815135     -1.439608254     -0.461939707
O        0.259364198     -0.909127062     -0.466757719
C       -0.958056633     -0.391822868     -0.439382495
C       -1.406042013      0.875136910     -0.361168728
C       -2.910290506      0.836568159     -0.475834194
C       -3.167649006     -0.668016481     -0.264944855
O       -1.927185285     -1.331144587     -0.516467640
H        1.022986510      1.570097497      1.366606747
H        1.699634639      0.097868959      2.099261674
H        2.786571700      1.319558501      1.393321368
H        2.879761449      1.565005113     -1.829138760
H        1.767015756      0.537959868     -2.765739300
H        1.128617913      1.883982932     -1.793883155
H        2.869074466     -2.159842120      0.356217005
H        2.925210578     -1.983929576     -1.413361508
H        4.032682970     -1.033700266     -0.389175787
H       -0.791624013      1.769853910     -0.322262728
H       -3.433643692      1.436261241      0.282899835
H       -3.260036800      1.182834489     -1.463926385
H       -3.455804305     -0.874157121      0.778738719
H       -3.926014542     -1.093314665     -0.933443587
Li      -1.847356777      1.366568581      1.797021530
