66
LiC30N2H32O
O        0.705211698      0.783715145      1.357360224
C        0.072457698      0.463471145      0.313823224
C        0.179435698     -1.039403855      0.095268224
N       -0.786457302     -1.976225855      0.173793224
C       -2.202547302     -1.726119855      0.234858224
C       -2.730484302     -1.072925855      1.360386224
C       -1.874453302     -0.655231855      2.524112224
C       -4.103483302     -0.829027855      1.368083224
C       -4.936721302     -1.219141855      0.315126224
C       -6.409249302     -0.909017855      0.359207224
C       -4.369957302     -1.888842855     -0.768846776
C       -2.999172302     -2.153382855     -0.834556776
C       -2.428388302     -2.879433855     -2.025881776
C       -0.211088302     -3.235610855      0.208352224
C        1.133630698     -3.055565855      0.147485224
N        1.352179698     -1.693855855      0.085457224
C        2.647494698     -1.071407855      0.001710224
C        3.100959698     -0.644547855     -1.248870776
C        2.228331698     -0.753079855     -2.470383776
C        4.373263698     -0.071209855     -1.307925776
C        5.160910698      0.084434145     -0.165604776
C        6.512053698      0.744058145     -0.247812776
C        4.652860698     -0.342880855      1.065495224
C        3.388276698     -0.919109855      1.178918224
C        2.794644698     -1.297090855      2.506346224
C       -0.716078302      1.199927145     -0.554117776
C       -1.001121302      2.618662145     -0.303724776
C       -1.920187302      3.314222145     -1.120282776
C       -2.223997302      4.655701145     -0.904628776
C       -1.618741302      5.360828145      0.133951224
C       -0.704851302      4.694315145      0.950713224
C       -0.397804302      3.352837145      0.745062224
C       -1.277531212      0.599361679     -1.817020944
H       -1.398429302      0.320519145      2.346626224
H       -2.485295302     -0.588350855      3.433179224
H       -1.058094302     -1.369640855      2.703760224
H       -4.536720302     -0.318934855      2.231949224
H       -6.577624302      0.174860145      0.274106224
H       -6.947854302     -1.402742855     -0.459730776
H       -6.851508302     -1.235975855      1.311032224
H       -5.006584302     -2.205451855     -1.598509776
H       -3.036794302     -2.680706855     -2.917512776
H       -1.395162302     -2.576364855     -2.242011776
H       -2.425621302     -3.969118855     -1.865071776
H       -0.816073302     -4.133303855      0.280150224
H        1.957014698     -3.762534855      0.140779224
H        1.423611698     -0.001647855     -2.424558776
H        2.810841698     -0.575634855     -3.382691776
H        1.754356698     -1.743531855     -2.547942776
H        4.752805698      0.270032145     -2.274105776
H        6.423219698      1.823733145     -0.051873776
H        7.205131698      0.328409145      0.495852224
H        6.956671698      0.622224145     -1.244443776
H        5.251036698     -0.207445855      1.969771224
H        1.881877698     -0.694787855      2.647064224
H        2.522186698     -2.362950855      2.547731224
H        3.499018698     -1.091299855      3.321390224
H       -2.417315302      2.797657145     -1.941700776
H       -2.943030302      5.153607145     -1.558745776
H       -1.853070302      6.413197145      0.302632224
H       -0.214629302      5.229661145      1.767048224
H        0.320052698      2.846215145      1.385198224
H       -2.380830591      0.537936868     -1.807838878
H       -0.997211838      1.199524182     -2.699561398
H       -0.896578366     -0.414831702     -2.000208119
Li       0.551160507      1.895787015     -2.287303814
