21
LiC7N4H7O2
C       -2.682305744     -0.927651255      0.361044394
N       -1.316863530     -0.436888467      0.344801670
C       -1.134905094      0.948173286      0.338193394
O       -2.081505803      1.726360847      0.345770127
N        0.167769539      1.378019943      0.322956820
C        0.480122238      2.787996467      0.314992342
C        1.213752455      0.460507232      0.314903684
N        2.509535045      0.759533279      0.300200418
C        3.069274191     -0.488038704      0.298026964
N        2.246359581     -1.524253675      0.310737686
C        1.015340275     -0.923816392      0.321647921
C       -0.311196371     -1.466122642      0.337549561
O       -0.683286925     -2.625429720      0.345517850
H       -3.355734316     -0.067313648      0.365175986
H       -2.846101441     -1.555802686      1.247956473
H       -2.864837411     -1.562023043     -0.517740204
H       -0.460111355      3.347484252      0.323170782
H        1.072686891      3.035683974     -0.578132759
H        1.091570762      3.041501592      1.193637062
H        4.155721910     -0.610707711      0.286873400
Li       3.437255552      2.619989637      0.283533104
