18
LiC5NH11
C       -0.000061911      1.726878561      0.083144069
C        1.257263089      0.982370561     -0.369823931
C        1.207152089     -0.479515439      0.086104069
N        0.000045089     -1.181510439     -0.322886931
C       -1.207116911     -0.479605439      0.086098069
C       -1.257336911      0.982282561     -0.369818931
H       -0.000063911      1.793311561      1.185576069
H       -0.000098911      2.760614561     -0.294050931
H        1.322097089      1.012010561     -1.472103931
H        2.164930089      1.472380561      0.015836069
H        2.083986089     -1.034585439     -0.279817931
H        1.254755089     -0.512238439      1.189492069
H        0.000052089     -1.294825439     -1.335782931
H       -2.083907911     -1.034739439     -0.279829931
H       -1.254722911     -0.512338439      1.189486069
H       -2.165036911      1.472225561      0.015847069
H       -1.322176911      1.011923561     -1.472097931
Li       0.000111664     -3.036828588      0.615215174
