18
LiC9N2H6
N        4.056471542     -0.307804872      0.935125561
C        2.937834052     -0.120401605      0.715405037
C        1.543297331      0.118826474      0.442531180
C        1.111339236      1.443593884      0.179121031
C       -0.216509191      1.715360277     -0.087071206
C       -1.115651279      0.638877044     -0.087038662
C       -0.703027992     -0.695394658      0.174436989
C       -1.877210992     -1.519897365      0.091345386
C       -2.919630871     -0.686114343     -0.206364002
N       -2.464933228      0.609099470     -0.313786254
C        0.649255953     -0.948845524      0.442199311
H        1.845282730      2.249375828      0.189516146
H       -0.549377536      2.733978943     -0.289752125
H       -1.935022461     -2.594452748      0.235139920
H       -3.992489871     -0.860198343     -0.206219002
H       -3.037868312      1.413095507     -0.526869408
H        1.003861979     -1.959494924      0.647453324
Li      -1.673698205     -1.669951576      2.334137235
