49
LiC20N2H24O2
C        4.208963325     -3.470974427      0.551119510
O        3.123829713     -2.744012202      0.038452329
C        3.035415986     -1.422121265      0.312644364
C        3.990307202     -0.726006958      1.100669241
C        3.837121883      0.621227484      1.317547341
C        2.739430373      1.341024852      0.780431654
N        2.677162803      2.676696388      1.024802031
C        1.678612395      3.343887979      0.510775189
C        0.648826333      2.749752778     -0.262345017
C        0.665565583      1.397552538     -0.505229441
C       -0.489622235      0.778069814     -1.263193479
H       -0.148409800     -0.160369826     -1.739674345
O       -0.956334197      1.675605504     -2.228970268
C       -1.653537227      0.462714422     -0.303036293
H       -1.879162083      1.421376287      0.194218295
C       -1.392200886     -0.620605160      0.762995201
C       -2.677123622     -1.451226727      0.907415459
H       -2.603651889     -2.124780652      1.772744302
C       -2.867070769     -2.249073519     -0.388416466
C       -2.807641430     -1.246489369     -1.570803446
N       -2.854770372      0.137687850     -1.089149156
C       -4.028757903      0.310960670     -0.236440089
C       -3.905760369     -0.527319659      1.079131774
H       -4.793481980     -1.170488759      1.188845920
C       -3.810329828      0.337449707      2.303935413
C       -4.587021706      0.216890230      3.379750498
C        1.765574961      0.636090690      0.007166419
C        1.952964403     -0.749526706     -0.219548897
H        4.082560346     -4.504050946      0.208802598
H        5.170888564     -3.085046662      0.175004311
H        4.223227945     -3.457985596      1.653474841
H        4.847275589     -1.245569491      1.526749885
H        4.558591001      1.187903607      1.906663096
H        1.651232320      4.421896476      0.703365848
H       -0.155184581      3.357584188     -0.678064574
H       -1.893106752      1.440976963     -2.345286803
H       -0.572224854     -1.289981311      0.460483246
H       -1.085703021     -0.166432048      1.716216177
H       -2.082237181     -3.014302573     -0.481747552
H       -3.832667016     -2.777119245     -0.364344445
H       -1.887244237     -1.376737943     -2.157886518
H       -3.645602821     -1.393986652     -2.267113899
H       -4.141591106      1.380701145     -0.003746503
H       -4.917514949      0.008523200     -0.809628938
H       -3.041459952      1.120747752      2.291694794
H       -4.472126546      0.871608404      4.245395766
H       -5.369046352     -0.546432310      3.427948703
H        1.263344825     -1.330529617     -0.829795516
Li       4.153574234      3.615523795      2.147768365
