30
LiSiC9H18O
C        2.227170090     -1.213170241     -1.394126215
Si       2.037120331      0.135700558     -0.105630543
O        0.574334057      0.955129024     -0.322622260
C       -0.701711032      0.533447277     -0.142422548
C       -1.068065090     -0.741249621      0.064152671
C       -2.497280101     -1.154684975      0.305852830
C       -3.387891362      0.039926665      0.643315305
C       -3.124400957      1.190919897     -0.324081710
C       -1.682337714      1.673538765     -0.197405527
C        2.129969965     -0.549974031      1.636253022
C        3.327485912      1.459939568     -0.364878787
H        2.057723848     -0.801331040     -2.400232699
H        3.249732636     -1.620208850     -1.362908858
H        1.527634885     -2.047651958     -1.247316073
H       -0.289615090     -1.498103621     -0.062248329
H       -2.894277765     -1.673649778     -0.585603327
H       -2.533620084     -1.894869533      1.121084951
H       -4.446907709     -0.256310429      0.620883012
H       -3.168824188      0.378318718      1.670234393
H       -3.302846039      0.841111314     -1.354862377
H       -3.819169728      2.024169289     -0.144604354
H       -1.549156575      2.286730078      0.711057583
H       -1.395540315      2.318714126     -1.042032139
H        3.127758038     -0.976570016      1.821634756
H        1.960806188      0.251752031      2.370427096
H        1.384073332     -1.336627310      1.815315886
H        3.256706603      1.878782216     -1.379184267
H        3.185143875      2.281506496      0.352203531
H        4.341998599      1.056195152     -0.229977004
Li      -1.179590189     -1.805050262     -1.923292762
