36
LiSn2C9H24
C        1.745602053     -0.867835604      2.517069300
Sn      -0.028082452      0.378896599      2.550685152
C       -1.786146824     -0.890211563      2.549646317
C       -0.019512738      1.615816616      4.329300653
C       -0.052416404      1.604869593      0.754722507
C       -0.059005210      0.772092556     -0.531674174
C       -0.076149413      1.614639751     -1.811595158
Sn      -0.085120327      0.402377359     -3.616982419
C       -1.842954161     -0.866825709     -3.593092501
C       -0.109358560      1.652803411     -5.385983511
C        1.688794735     -0.844449758     -3.625667518
H        1.751851831     -1.509207900      1.624539246
H        2.654434566     -0.250115753      2.503632857
H        1.782498620     -1.515299825      3.404214643
H       -1.798467173     -1.537986693      3.437246629
H       -2.702826012     -0.284057635      2.553048963
H       -1.800732733     -1.531715905      1.657309447
H        0.867051631      2.264725280      4.346319389
H       -0.913762876      2.253442622      4.362745201
H       -0.007217205      0.991853199      5.233731822
H       -0.938525197      2.260410964      0.781809652
H        0.825665351      2.271588270      0.765537175
H        0.825273611      0.108497108     -0.542378238
H       -0.934851186      0.097344568     -0.526143267
H       -0.962561447      2.270305958     -1.817298373
H        0.801629102      2.281483264     -1.833570850
H       -2.759496819     -0.260727986     -3.574926593
H       -1.871733219     -1.507825288     -4.485219189
H       -1.841079937     -1.515106188     -2.705548379
H        0.776785126      2.301885258     -5.414454501
H       -0.113835539      1.035744728     -6.295211647
H       -1.004029382      2.290602600     -5.398028689
H        1.711504664     -1.492598197     -2.738314580
H        1.709232611     -1.485138436     -4.518247176
H        2.597763795     -0.226786118     -3.624338699
Li       0.019525527     -0.365264603      7.200865802
