46
LiSiC22H5O2F15
F       -0.191780465      2.754915590     -1.307364190
C        0.910530895      2.720946068     -0.571300803
C        1.184118302      1.633465323      0.255654242
Si       0.094793553      0.129010466      0.478741206
C        1.008687199     -1.337934317     -0.249951878
C        1.098774181     -1.426937210     -1.637609004
C        1.777497608     -2.450960220     -2.283101316
F        1.838408622     -2.512247992     -3.600534484
C        2.406874526     -3.424558238     -1.507405042
C        2.353191042     -3.361078097     -0.117838239
F        2.958012350     -4.285335228      0.604802620
C        1.664809355     -2.315215657      0.495746283
F        1.660930031     -2.283570879      1.817087489
F        3.056473187     -4.408280871     -2.093499950
F        0.504111802     -0.493835450     -2.379516951
O       -0.097575993     -0.056165000      2.124513247
C       -0.870612693     -0.992146186      2.688942556
C       -1.489208770     -2.060881498      2.163462280
C       -2.292655865     -2.699785041      3.270478642
C       -1.715762405     -1.968019744      4.500443308
O       -1.056225887     -0.795803004      4.004525841
C       -1.616861424      0.346800423     -0.261059902
C       -2.283651425     -0.610420224     -1.022190084
C       -3.577976761     -0.415903706     -1.495335901
F       -4.181195501     -1.346936147     -2.211254568
C       -4.243221073      0.767323319     -1.185882772
C       -3.615931478      1.743122056     -0.413257914
F       -4.252443520      2.860209405     -0.117741971
C       -2.323979341      1.509621867      0.043273994
F       -1.754209107      2.445254188      0.794201270
F       -5.469907113      0.963588418     -1.621622587
F       -1.705838772     -1.773132300     -1.308866336
C        2.394719041      1.651508976      0.949146653
F        2.728018689      0.611826867      1.703799391
C        3.283437549      2.718434359      0.873468323
F        4.418482875      2.708909674      1.546641335
C        2.965181134      3.800020811      0.054307637
F        3.794560506      4.817735261     -0.039293848
C        1.776228692      3.806652794     -0.671687021
F        1.489517759      4.829642655     -1.454414131
H       -1.527253770     -2.333898498      1.110794280
H       -3.374721737     -2.523172962      3.149429015
H       -2.145972532     -3.785847649      3.351739221
H       -2.469503288     -1.650556512      5.230244816
H       -0.959567324     -2.585732266      5.009230278
Li      -0.113587207     -3.845256173      2.296583787
