27
LiC13NH10OCl
O       -1.212476473      1.935017131      0.177548611
C       -1.271257473      0.701855131      0.121611611
C       -2.632518473      0.046357131      0.092188611
C       -3.720982473      0.859345131     -0.243422389
C       -5.009268473      0.334286131     -0.288817389
C       -5.227644473     -1.010089869      0.013945611
C       -4.151647473     -1.823330869      0.367121611
C       -2.861201473     -1.298527869      0.405665611
C       -0.149851473     -0.172573869      0.054621611
H       -0.271856473     -1.241459869     -0.076112389
N        1.160884527      0.243807131      0.085268611
C        1.532650527      1.561834131      0.205968611
C        2.868320527      1.920493131      0.238576611
C        3.887326527      0.978235131      0.149769611
C        3.487073527     -0.352993869      0.024843611
Cl       4.661944527     -1.617105869     -0.086925389
C        2.153823527     -0.700018869     -0.006388389
H       -3.523711473      1.909916131     -0.459816389
H       -5.849337473      0.976326131     -0.558844389
H       -6.237440473     -1.422480869     -0.018838389
H       -4.318309473     -2.871521869      0.620302611
H       -2.037065473     -1.944000869      0.711842611
H        0.702959527      2.262182131      0.266881611
H        3.101041527      2.980761131      0.337351611
H        4.942214527      1.244759131      0.174847611
H        1.831666527     -1.734597869     -0.099515389
Li       0.479039724     -0.722973989      2.151191326
