30
LiBC9H17O2
C        3.879473845      0.273504443      0.791869618
C        2.960833221      0.319306407     -0.172966180
C        2.043497934     -0.808867530     -0.551044068
B        0.543850872     -0.422336763     -0.273843197
O       -0.342856899     -1.198888290      0.420261630
C       -1.642578845     -0.592435825      0.301361244
C       -2.359401701     -1.296635334     -0.847753491
C       -2.404698776     -0.785291301      1.600973063
C       -1.281464585      0.896940435     -0.032304367
C       -2.257018416      1.595581489     -0.963160894
C       -1.041598068      1.737457554      1.219019951
O       -0.011948595      0.757918611     -0.692820068
H        4.496685845      1.141716443      1.030363618
H        4.051520845     -0.639105557      1.369622618
H        2.818173238      1.254932421     -0.725357081
H        2.135939454     -1.014880863     -1.632350505
H        2.305463576     -1.731639386     -0.014143610
H       -2.383771697     -2.374726854     -0.638772422
H       -3.390677312     -0.935019577     -0.962401604
H       -1.824430618     -1.141826193     -1.795818706
H       -1.821734610     -0.431218907      2.459654052
H       -3.361566658     -0.243121109      1.570783448
H       -2.616003103     -1.853368738      1.747810096
H       -3.260144993      1.635023347     -0.513080643
H       -1.917664637      2.625195842     -1.141733015
H       -2.320824571      1.084959133     -1.931434764
H       -0.341335253      1.232825884      1.900410647
H       -0.594874532      2.694869514      0.918102385
H       -1.978066534      1.937636140      1.757853767
Li       5.876376973     -0.252246967     -0.119180519
