35
LiC15N2H16O
O        1.450445960     -1.612980547      0.409405667
C        1.728179960     -0.401595547      0.326296667
C        3.190864960     -0.011771547      0.295509667
C        4.107023960     -1.009643547     -0.053617333
C        5.470762960     -0.734388547     -0.110145333
C        5.940788960      0.542542453      0.197942667
C        5.037371960      1.538119453      0.568476667
C        3.671938960      1.262548453      0.617794667
C        0.804463960      0.653578453      0.223227667
H        1.108888960      1.681381453      0.062761667
N       -0.583333040      0.470588453      0.230382667
C       -1.176156040     -0.751360547      0.380211667
C       -2.547933040     -0.898452547      0.392749667
C       -3.414422040      0.204789453      0.248403667
N       -4.773146040      0.079361453      0.261457667
C       -5.365384040     -1.229204547      0.424275667
C       -5.602082040      1.247821453      0.074314667
C       -2.774323040      1.457343453      0.087159667
C       -1.404217040      1.549115453      0.084223667
H        3.712816960     -2.003283547     -0.270288333
H        6.173057960     -1.521169547     -0.391640333
H        7.009788960      0.758984453      0.159412667
H        5.398596960      2.534061453      0.831108667
H        2.981501960      2.043313453      0.940542667
H       -0.470608040     -1.576952547      0.479809667
H       -2.932222040     -1.908672547      0.516069667
H       -5.056838040     -1.696835547      1.373901667
H       -6.456175040     -1.132909547      0.432051667
H       -5.086154040     -1.910172547     -0.397570333
H       -5.415267040      1.731056453     -0.899947333
H       -6.655949040      0.951736453      0.107865667
H       -5.435052040      1.998463453      0.865050667
H       -3.339771040      2.378205453     -0.036909333
H       -0.899229040      2.506339453     -0.036000333
Li       0.265773409      1.363765071      2.296750384
