16
LiC5H10
C       -0.622131272      1.447701322     -0.197511606
C       -0.448689367     -0.045069012     -0.115517098
C       -1.736453209     -0.822530049     -0.189032670
C        0.728407721     -0.673320148      0.012102525
C        2.102449721     -0.073703148      0.012101525
H       -1.272202227      1.801242129      0.618917186
H        0.322953147      1.999443453     -0.142707931
H       -1.123920816      1.721889615     -1.139406180
H       -2.267456611     -0.610564075     -1.131274107
H       -1.563522513     -1.904859945     -0.125576482
H       -2.415885149     -0.531107685      0.628375266
H        0.700142721     -1.769224148      0.012099525
H        2.091782721      1.022815852      0.012133525
H        2.671546721     -0.404926148      0.894754525
H        2.671525721     -0.404874148     -0.870585475
Li       1.530197754     -1.155969919     -2.041730706
