19
LiC8H10
C       -2.016895746      1.256755941      0.330070184
C       -1.208451090     -0.006022287      0.266377890
C       -2.026465299     -1.264084279      0.285918613
C        0.146471178     -0.009950298      0.197039435
C        1.039439801      1.161353100      0.172144045
C        2.316635851      0.716982530      0.098968329
C        2.311070390     -0.749450077      0.073288424
C        1.030527262     -1.186405262      0.130986795
H       -2.629453858      1.263449938      1.245813205
H       -1.401651622      2.161892164      0.314845305
H       -2.719318043      1.294868965     -0.517877452
H       -2.729336185     -1.266961796     -0.562504916
H       -1.418127002     -2.172768657      0.238521166
H       -2.638861817     -1.298386591      1.201154444
H        0.717476801      2.200298100      0.172163045
H        3.211671118      1.337268562      0.064197307
H        3.201377781     -1.374912089      0.016702775
H        0.705044406     -2.224252158      0.129239881
Li       0.237490457      1.440191777     -1.919069775
