27
LiC10H11SO4
O       -0.953016526      1.310461859      1.469970547
S       -0.947758526      1.022373859      0.032593547
C        0.581093474      0.623727859     -0.573614453
H        0.836054474      1.064327859     -1.531611453
C        1.377737474     -0.343541141      0.068635547
O        2.585674474     -0.535735141     -0.588508453
C        3.409973474     -1.528532141     -0.033447453
C        4.670776474     -1.599134141     -0.871376453
O        1.135601474     -1.012319141      1.066439547
C       -1.976818526     -0.460929141     -0.108671453
C       -1.862425526     -1.468611141      0.850564547
C       -2.644381526     -2.615341141      0.721854547
C       -3.541472526     -2.744637141     -0.340500453
C       -3.657146526     -1.722244141     -1.283881453
C       -2.872272526     -0.574788141     -1.169485453
O       -1.559915526      1.999603859     -0.884564453
H        3.641401474     -1.292708141      1.018845547
H        2.885076474     -2.498967141     -0.017261453
H        4.422923474     -1.843597141     -1.914293453
H        5.186604474     -0.628282141     -0.866181453
H        5.358261474     -2.365226141     -0.483333453
H       -1.143582526     -1.337029141      1.659984547
H       -2.555526526     -3.415110141      1.460444547
H       -4.155152526     -3.643810141     -0.430808453
H       -4.366804526     -1.817916141     -2.108929453
H       -2.939131526      0.251533859     -1.879495453
Li       1.057735863      2.655960937      0.284808374
