30
LiC14H11SO3
O        0.371854579      1.040388155     -1.260912313
C        0.811761579      0.270413155     -0.392550313
C        2.256448579      0.485153155      0.052347687
C        2.872926579      1.679562155     -0.334347313
C        4.192803579      1.950681155      0.019023687
C        4.924589579      1.020999155      0.759163687
C        4.323662579     -0.179798845      1.138214687
C        3.000443579     -0.444900845      0.786549687
C        0.107101579     -0.758801845      0.251242687
H        0.450361579     -1.306523845      1.123056687
S       -1.500673421     -1.133474845     -0.179424313
O       -1.972207421     -2.181682845      0.742951687
C       -2.500740421      0.321370155      0.202830687
C       -2.539885421      1.389636155     -0.693510313
C       -3.319638421      2.502294155     -0.378891313
C       -4.055654421      2.538573155      0.807112687
C       -4.014084421      1.457526155      1.688841687
C       -3.233435421      0.342026155      1.387277687
O       -1.683263421     -1.332217845     -1.619093313
H        2.273053579      2.371508155     -0.927570313
H        4.658193579      2.890463155     -0.287696313
H        5.961575579      1.227639155      1.033193687
H        4.892211579     -0.919584845      1.706212687
H        2.543482579     -1.395017845      1.066702687
H       -1.937388421      1.330984155     -1.600315313
H       -3.354145421      3.349654155     -1.066899313
H       -4.666224421      3.412698155      1.044683687
H       -4.597415421      1.481714155      2.612033687
H       -3.184382421     -0.529335845      2.042530687
Li       0.346439207     -2.665388641     -0.932688599
