29
LiC14NH13
H       -0.002675499     -2.509734039      0.555240408
C       -0.019615835     -1.444175585      0.823274778
H       -0.024515242     -1.391172483      1.928813337
C        1.209999611     -0.738676907      0.314087707
C        1.155652279      0.665460667      0.208541607
C        2.302855414      1.368282388     -0.185357513
C        3.484424288      0.683084788     -0.465582296
C        3.536840253     -0.704633376     -0.379569614
C        2.392170854     -1.403921015      0.005891318
N       -0.059614736      1.313055996      0.482712149
C       -0.081573367      2.751989688      0.588214604
C       -1.252877348      0.629413788      0.199586992
C       -2.417640823      1.297654721     -0.202856434
C       -3.576074025      0.577451180     -0.491761550
C       -3.587584348     -0.811226086     -0.406006996
C       -2.425397675     -1.476005544     -0.011996688
C       -1.265974058     -0.775730689      0.304888948
H        2.276855958      2.451349592     -0.295850462
H        4.367160412      1.248322744     -0.769041044
H        4.458449307     -1.240302197     -0.608430761
H        2.417386077     -2.493183325      0.086669636
H       -0.085532749      3.262371720     -0.392930318
H       -0.974678707      3.059954817      1.146136185
H        0.797670599      3.086523865      1.152809405
H       -2.423231910      2.381031957     -0.313236653
H       -4.473053623      1.116066089     -0.801799456
H       -4.491035555     -1.374197125     -0.641632496
H       -2.418615264     -2.565543582      0.068713260
Li      -0.035094732     -1.276720720      4.316047902
