56
LiSi2C15NH35O2
C       -0.403718888      2.859325877      1.224904762
C        0.327223539      2.408565748      0.199709011
N        0.018022294      1.188928763     -0.468053202
O        1.147125527      0.461391700     -0.810414270
Si       1.978326416     -0.514689335      0.332884739
C        2.250143295      0.420914323      1.932400782
C        1.041262483     -2.101333911      0.670721865
C        3.582764461     -0.866211184     -0.612015159
C        4.211229913      0.453517572     -1.075044508
C        4.565235696     -1.613014148      0.299138211
C        3.252694279     -1.731727816     -1.835924611
O       -0.826170533      0.380375214      0.289510900
Si      -2.234967390      0.033361408     -0.638561883
C       -3.066690740      1.660239369     -1.042671581
C       -1.696980879     -0.861938337     -2.187901457
C       -3.302636751     -1.028039441      0.516035503
C       -3.181566659     -0.486120317      1.946937725
C       -4.764785348     -0.942315416      0.054779421
C       -2.850344010     -2.493089631      0.478724435
C        1.444795573      3.167414090     -0.451203752
H       -1.220837888      2.271964877      1.640010762
H       -0.226534888      3.864501877      1.606206762
H        1.279444338      0.658252808      2.390853434
H        2.823610784     -0.201045024      2.637278015
H        2.792102622      1.366161407      1.783107365
H        0.578692373     -2.481715680     -0.252073876
H        1.706538541     -2.882201637      1.069984875
H        0.245010663     -1.911124078      1.403586456
H        4.459478426      1.108445465     -0.223494087
H        5.148413358      0.258919300     -1.624398279
H        3.530243870      1.002428278     -1.741960242
H        4.142457065     -2.557694646      0.677277137
H        5.483711289     -1.864856516     -0.258235613
H        4.862677617     -1.003271526      1.166813663
H        2.515841129     -1.238416550     -2.488350370
H        4.163895314     -1.916692981     -2.430404966
H        2.845067750     -2.711576827     -1.540951315
H       -2.338977196      2.333661068     -1.518946415
H       -3.907053543      1.511490628     -1.737338193
H       -3.449786676      2.156822468     -0.138889279
H       -1.171299244     -1.796284895     -1.943911612
H       -2.555482735     -1.105662162     -2.831898236
H       -1.005208539     -0.219741641     -2.752372024
H       -3.481677090      0.572612025      2.010045631
H       -3.835774271     -1.057665632      2.627557764
H       -2.148336790     -0.561653093      2.317230139
H       -4.888110836     -1.276232853     -0.988870222
H       -5.398482706     -1.590359571      0.684066070
H       -5.157898363      0.083104186      0.129954748
H       -1.791753989     -2.604766208      0.757357540
H       -3.447799779     -3.093392550      1.186252005
H       -2.982936159     -2.932369981     -0.522454367
H        2.409958292      2.669017678     -0.281472057
H        1.292419303      3.210653991     -1.539247822
H        1.493409312      4.185709128     -0.048458827
Li      -2.200488644      3.961303775      0.417865632
