28
LiSiC8H16O2
C       -2.215659402      2.049045664     -0.488300023
C       -1.854059402      0.602949664     -0.459699023
C       -0.651321673      0.084319579     -0.175013419
O        0.508878582      0.695760546      0.014808401
Si       2.043555049     -0.057421276      0.074607423
C        2.145981847     -1.127630672      1.602216410
C        2.296539842     -1.044857199     -1.492932848
C        3.216001275      1.391402970      0.175405617
O       -0.623677462     -1.277471628     -0.040677797
C       -1.895149686     -1.752247890     -0.493306714
C       -2.842262905     -0.540611062     -0.457085002
H       -1.307652402      2.666723664     -0.497168023
H       -2.812819402      2.304168664     -1.378602023
H       -2.813355402      2.334510664      0.393489977
H        1.409847867     -1.940848453      1.543526836
H        3.150607767     -1.565470575      1.704925308
H        1.937257147     -0.534608935      2.504782175
H        2.165785029     -0.408241422     -2.380366780
H        3.310743734     -1.471381279     -1.524504845
H        1.571028132     -1.868649008     -1.544029907
H        3.117157102      2.036388185     -0.709656047
H        3.003274172      1.999400600      1.066735767
H        4.259212261      1.047317623      0.236154944
H       -1.771876874     -2.121264522     -1.524644349
H       -2.199813930     -2.586540506      0.150123058
H       -3.475839964     -0.529091987      0.448258689
H       -3.518647697     -0.536289080     -1.325516593
Li      -2.982541611      0.941694024      1.465354005
