40
LiSiC12H26
C       -3.171285635     -0.680858245     -1.530114861
C       -1.881619017     -1.025716013     -1.555126410
C       -0.725002278     -0.098629630     -1.771113850
Si       0.441050179     -0.032551067     -0.263478254
C        1.920471488      1.114305096     -0.627464298
C        2.727460877      0.687386123     -1.857245033
C        1.510619007      2.587187967     -0.734601269
C       -0.485598492      0.648446969      1.262852934
C       -1.533104592      1.702051643      0.876615673
C       -1.137559810     -0.445821484      2.116071856
C        1.041430040     -1.808123177      0.096039692
C        1.368025216     -2.640387431     -1.148483814
C        2.218295878     -1.796671202      1.077771827
H       -3.486501635      0.337696755     -1.774924861
H       -3.952635635     -1.433867245     -1.413067861
H       -1.629097930     -2.079646683     -1.381029182
H       -0.117119489     -0.449811196     -2.623789955
H       -1.082210562      0.913261073     -2.020771805
H        2.573496887      1.015026531      0.259347202
H        2.104504084      0.682016555     -2.766463604
H        3.561472172      1.384070108     -2.040412677
H        3.157972860     -0.317616673     -1.742597537
H        1.038470734      2.951582803      0.189190259
H        2.388785473      3.223520094     -0.931013869
H        0.800626220      2.750125846     -1.562432454
H        0.289164691      1.143523961      1.877921382
H       -1.967132330      2.170494173      1.774737798
H       -1.120177543      2.505918487      0.249829849
H       -2.357268442      1.234057431      0.317404159
H       -0.401976275     -1.163213399      2.509111558
H       -1.665641971     -0.006052639      2.977665727
H       -1.879938923     -1.012100109      1.530616466
H        0.185355807     -2.293322619      0.598260648
H        2.202661874     -2.210460979     -1.722076528
H        1.662117344     -3.664570833     -0.866848373
H        0.509531316     -2.720731540     -1.831794755
H        1.995934721     -1.216529198      1.987872324
H        2.489238875     -2.817469360      1.391761259
H        3.112162042     -1.348838240      0.613650181
Li      -4.024803934     -0.876886088     -3.610289997
