20
LiC9NH7O2
O       -3.010405211     -1.192591277      1.083850299
C       -2.563856577     -0.107875229      0.817698239
C       -1.140728009      0.169303637      0.487865886
C       -0.697835133      1.478975432      0.185786352
C        0.626928967      1.727893522     -0.119767284
C        1.511257720      0.638286243     -0.119029287
C        1.086586236     -0.684074258      0.181475709
C        2.248171236     -1.526955450      0.086549541
C        3.294267620     -0.715601666     -0.254968569
N        2.853971231      0.584430834     -0.378811978
C       -0.262297082     -0.907775220      0.487743892
O       -3.336838458      0.992092544      0.793037641
H       -1.420438776      2.294204146      0.197432269
H        0.970664323      2.736546968     -0.352944560
H        2.294104204     -2.599010021      0.252132262
H        4.365819620     -0.897660666     -0.254934569
H        3.431847875      1.375534462     -0.623368866
H       -0.644941756     -1.901407254      0.726257672
H       -4.233001575      0.702496281      1.019509293
Li       2.099291498     -1.626182709      2.336446822
