49
LiSnC16H30O
C        1.940530213      5.165256607      0.986604472
C        1.637068565      3.826638633      1.649102255
C        1.057473332      2.797281154      0.679573206
C        0.746900284      1.448546897      1.330115869
Sn      -0.040373250      0.016060860     -0.094451483
C       -0.267405535     -1.889854639      0.892871020
C       -1.297806161     -2.784927061      1.008469310
C       -0.824378816     -3.872083467      1.813646292
C        0.461514558     -3.558137805      2.130127192
O        0.804433442     -2.375627975      1.585440867
C       -2.019377096      0.615330341     -0.743915378
C       -2.952240770      0.895319914      0.436242057
C       -4.355749958      1.327744019      0.014649122
C       -5.278544903      1.590306119      1.198946538
C        1.423004427     -0.218996832     -1.676911866
C        2.816133202     -0.492363518     -1.105652981
C        3.883992401     -0.708892432     -2.177016549
C        5.268991100     -0.961537342     -1.592811528
H        2.668039938      5.044020640      0.169641553
H        1.029240944      5.606699885      0.555252175
H        2.356991301      5.888413189      1.701560494
H        2.555009934      3.412619429      2.098796076
H        0.928062958      3.969761390      2.481598422
H        0.141697307      3.217363273      0.223964292
H        1.768458284      2.659103437     -0.155840154
H        1.655704028      1.018307747      1.781438521
H        0.021816615      1.571965775      2.150617159
H       -2.286010626     -2.678202290      0.566373015
H       -1.366729171     -4.763483832      2.115557168
H        1.138613558     -3.977912805      2.868320192
H       -1.924372387      1.512452899     -1.377386200
H       -2.438850143     -0.174484792     -1.388278917
H       -3.029835209     -0.001736466      1.076757333
H       -2.518419960      1.681274424      1.080711980
H       -4.277251128      2.234013338     -0.609178270
H       -4.789539917      0.548927964     -0.634885615
H       -6.278785739      1.907612567      0.872595829
H       -5.396737264      0.684994274      1.813280243
H       -4.871005340      2.379522781      1.848821320
H        1.105493946     -1.048546701     -2.328606399
H        1.433816383      0.687859701     -2.303582922
H        3.128720114      0.348943454     -0.460415376
H        2.785969871     -1.377735478     -0.445393295
H        3.583821921     -1.558248152     -2.813160086
H        3.909673891      0.173330388     -2.838741651
H        5.596998181     -0.110850314     -0.976323290
H        5.267364032     -1.854460105     -0.949554381
H        6.020528074     -1.115364419     -2.379818359
Li      -2.528341991     -2.258149485      2.825702360
