18
LiC5NH7O4
N       -1.342043781      1.572492658      0.201728064
C       -1.226883833      0.193165466     -0.297892921
C        0.085446175     -0.464803726      0.136528418
C        1.348236003      0.215575428     -0.387353149
C        2.700072269     -0.261245378      0.244980376
O        2.656953907     -0.609412064      1.443073548
O        3.697010920     -0.200520675     -0.506684255
C       -2.488318101     -0.673736610      0.078876682
O       -3.411857839     -0.063117683      0.670949822
O       -2.462986447     -1.863248314     -0.283495284
H       -2.319312479      1.598382830      0.517489871
H       -0.803807781      1.633539658      1.069162064
H       -1.226058867      0.214640638     -1.408247986
H        0.145978314     -0.476178685      1.239657605
H        0.046268991     -1.518060427     -0.180260904
H        1.427408909      0.113688485     -1.483112451
H        1.270903733      1.302015012     -0.191659278
Li      -0.722161878      2.885363032     -1.286344114
