17
LiC5NH8O2
O        0.870197127     -1.351570618     -0.423361351
C        1.220168127     -0.291370618      0.144098649
O        2.352294127      0.192336382      0.284597649
C        0.040245127      0.526973382      0.775279649
H        0.478005127      1.314349382      1.405514649
N       -0.794942873      1.145404382     -0.274467351
C       -1.646340873      0.055774382     -0.759024351
C       -1.871279873     -0.927371618      0.424723649
C       -0.937636873     -0.396131618      1.529944649
H       -0.254808935      1.590237114     -1.017927783
H       -2.584903873      0.463692382     -1.170094351
H       -1.108589873     -0.474903618     -1.553589351
H       -2.924173873     -0.953370618      0.752324649
H       -1.559849873     -1.934706618      0.126074649
H       -0.420531873     -1.204359618      2.066028649
H       -1.512658873      0.193065382      2.268252649
Li      -2.072844629      2.509163088      0.636230345
