47
LiBC18H21O3F3
C       -1.782448455      4.841884509      1.114030455
C       -2.133754712      3.654772796      0.286408110
O       -1.639187857      2.464496695      0.682795031
C       -2.881504052      3.489330476     -0.842343096
C       -2.830220993      2.085352228     -1.142556576
C       -2.060468260      1.488707985     -0.178841646
B       -1.584301260     -0.050231015      0.058056354
C        0.054841740     -0.105004015      0.099986354
C        0.812595740      0.203508985     -1.042487646
C        2.202133740      0.148394985     -1.039492646
C        2.875642740     -0.213271015      0.132466354
C        4.370140740     -0.221041015      0.137840354
F        4.893658740      1.017519985      0.140139354
F        4.882738740     -0.845353015      1.207362354
F        4.882898740     -0.826437015     -0.946146646
C        2.152073740     -0.522852015      1.283969354
C        0.757859740     -0.470429015      1.255406354
O       -2.123158260     -0.672246015      1.292775354
C       -3.142924260     -1.563511015      0.931673354
C       -3.219373260     -2.684635015      1.963772354
C       -4.481828260     -0.814559015      0.887252354
C       -2.698663260     -2.029246015     -0.499039646
C       -1.609785260     -3.108910015     -0.422247646
C       -3.840312260     -2.517708015     -1.385336646
O       -2.157104260     -0.858973015     -1.048138646
H       -2.145021078      4.728800228      2.147822022
H       -0.691489277      4.983118714      1.162935856
H       -2.232420265      5.746140934      0.684216101
H       -3.398302546      4.278715887     -1.384382431
H       -3.298617419      1.554052366     -1.967407291
H        0.283521740      0.488212985     -1.956728646
H        2.774589740      0.380817985     -1.941022646
H        2.684898740     -0.809286015      2.192804354
H        0.177687740     -0.727422015      2.145507354
H       -3.558981260     -2.272213015      2.926017354
H       -3.927523260     -3.470067015      1.652997354
H       -2.230037260     -3.134364015      2.118537354
H       -4.454955260     -0.044937015      0.102922354
H       -5.334717260     -1.489049015      0.709725354
H       -4.622191260     -0.308551015      1.853825354
H       -2.006884260     -4.084599015     -0.099507646
H       -1.163290260     -3.218064015     -1.421705646
H       -0.814797260     -2.797544015      0.270833354
H       -4.557213260     -1.707406015     -1.571542646
H       -3.436076260     -2.843200015     -2.355910646
H       -4.369162260     -3.368684015     -0.925745646
Li       0.092888703      1.487387387     -0.854934127
