24
LiSiC6H16
H        1.301797460      0.204013107     -0.020428632
Si       0.089530778     -0.672150455     -0.057527259
C        0.080612452     -1.771129124      1.479526460
C       -0.095395051     -0.995916656      2.788431676
C       -1.443746042      0.432839179     -0.076419099
C       -2.755057143     -0.357121932     -0.114550324
C        0.147112431     -1.731861303     -1.620877846
C        0.026959950     -0.923666795     -2.916080878
H       -0.721505501     -2.520390118      1.367869958
H        1.023889245     -2.342001123      1.495417204
H        0.686025673     -0.229603615      2.907982735
H       -1.066427123     -0.478221449      2.818484749
H       -0.047707604     -1.655111064      3.667533432
H       -1.413086620      1.086811522      0.810984723
H       -1.375425999      1.109049882     -0.944852645
H       -3.634703166      0.303070172     -0.125056094
H       -2.814221693     -0.995476349     -1.010027114
H       -2.852210678     -1.017908607      0.761119505
H        1.090513075     -2.302660169     -1.610761310
H       -0.658647943     -2.483273124     -1.562715022
H       -0.942171919     -0.404849530     -2.974620325
H        0.812371316     -0.154997305     -2.982584107
H        0.112649462     -1.560421222     -3.808735552
Li       3.238241575      1.603574607      0.038831777
