26
LiSiC9H14O
C        4.444992179     -0.196730832      0.747719307
O        3.532748604      0.845388283      0.968932087
C        2.217516467      0.598909276      0.786129597
C        1.345954355      1.671594405      1.018016197
C       -0.021907459      1.504675220      0.852757296
C       -0.574103478      0.273969870      0.454953289
C        0.318005927     -0.780499120      0.226995469
C        1.697360826     -0.637284818      0.386046343
Si      -2.428740711      0.022850736      0.261691021
H       -2.690263860     -0.584984405     -1.077119473
C       -3.055913596     -1.161767031      1.583978467
C       -3.316061405      1.676555131      0.386550935
H        5.442146752      0.209345791      0.949897422
H        4.258521843     -1.047899591      1.423539456
H        4.405931732     -0.554167879     -0.294703489
H        1.775733501      2.625306104      1.325895319
H       -0.675812214      2.360899461      1.038178239
H       -0.062303570     -1.756045266     -0.091393948
H        2.351265849     -1.487001757      0.194687700
H       -2.884462996     -0.740891839      2.585867451
H       -4.132490153     -1.355760625      1.468339729
H       -2.527879730     -2.125057310      1.527985366
H       -4.397171727      1.546227998      0.232827670
H       -3.169738983      2.126062040      1.380463595
H       -2.947990360      2.385087013     -0.369803867
Li      -3.108796347     -1.557742476     -3.219704895
