23
LiC7NH13O
C        3.703510925     -0.313532929      0.529071122
C        2.253246925      0.065868071      0.578315122
C        1.262776907     -0.781395662      0.258859291
N       -0.097987237     -0.507406267      0.171481769
C       -0.539106281      0.811529261      0.573636676
C       -1.997752974      1.014080639      0.189542425
O       -2.814803424     -0.009996760      0.696343842
C       -2.413688144     -1.262747248      0.203629241
C       -0.984570255     -1.570515049      0.618830929
H        3.826127925     -1.381067929      0.296433122
H        4.250065925      0.259702071     -0.236738878
H        4.204673925     -0.118269929      1.489988122
H        2.019679925      1.100895071      0.840808122
H        1.507763101     -1.820531782      0.007393986
H       -0.409829940      0.958585594      1.667048268
H        0.075544215      1.565441252      0.060010939
H       -2.371771553      1.962830855      0.596675586
H       -2.077494373      1.048425566     -0.914535906
H       -3.104497107     -2.012631220      0.611401999
H       -2.483397427     -1.278188131     -0.901659429
H       -0.657193440     -2.521414074      0.171692879
H       -0.947411056     -1.682484151      1.722224948
Li       2.877901470      1.197184964     -1.272084237
