22
LiSiC5H14O
C        3.679597421      0.116128276     -0.804246939
C        2.369575977     -0.623202092     -1.043990975
C        1.158637755      0.205616547     -0.656206914
O       -0.017345229     -0.524092828     -0.905488525
Si      -1.521808750     -0.042178901     -0.360160641
H       -1.483245531      0.036956573      1.131761259
C       -1.950441184      1.648125303     -1.047803964
C       -2.728415870     -1.346661500     -0.922985191
H        4.543359669     -0.496823141     -1.094723245
H        3.722248085      1.049389510     -1.385941625
H        3.799801993      0.379718789      0.257501294
H        2.266505948     -0.901942440     -2.104168465
H        2.339933237     -1.561347951     -0.468605642
H        1.228034396      0.483479509      0.414863106
H        1.157797598      1.150744437     -1.233550022
H       -2.955104133      1.958406202     -0.723360531
H       -1.238879184      2.414175912     -0.705418284
H       -1.935121868      1.633512814     -2.147895918
H       -2.432599867     -2.335257718     -0.544587437
H       -3.744221180     -1.127998049     -0.562631668
H       -2.753868768     -1.394811914     -2.021273828
Li      -1.421576039      0.163508368      3.517611530
