18
LiC7NH9
N        2.164953925     -0.777275354     -0.237639977
C        1.326714925      0.300990646      0.255819023
C       -0.146601075     -0.020735354      0.119225023
C       -0.595334075     -1.344441354      0.156077023
C       -1.956561075     -1.632527354      0.065849023
C       -2.887254075     -0.601999354     -0.060422977
C       -2.447616075      0.720708646     -0.101017977
C       -1.086171075      1.006483646     -0.015594977
H        2.056918925     -0.874358354     -1.245945977
Li       4.171816453     -0.377973569      0.130194057
H        1.552243925      0.437360646      1.327209023
H        1.510619925      1.283877646     -0.221715977
H        0.143583925     -2.141106354      0.251359023
H       -2.293521075     -2.670371354      0.094911023
H       -3.952384075     -0.827813354     -0.132044977
H       -3.167957075      1.533717646     -0.206815977
H       -0.744852075      2.044144646     -0.057414977
H        1.879336564     -1.627264287      0.241441183
