27
LiC14H11O
O        0.279626908     -1.767620545      0.043188750
C        0.476966908     -0.536906545     -0.060330250
C        1.943232908     -0.101164545     -0.094328250
C        2.897440908     -1.100403545     -0.329571250
C        4.257856908     -0.804509545     -0.379088250
C        4.700223908      0.503648455     -0.176753250
C        3.763531908      1.505635455      0.080930750
C        2.402398908      1.205254455      0.123051750
C       -0.483879092      0.479470455     -0.177126250
H       -0.143674092      1.504614455     -0.324305250
C       -1.908021092      0.293497455     -0.161925250
C       -2.540350092     -0.972567545     -0.014491250
C       -3.925818092     -1.086855545     -0.002762250
C       -4.757752092      0.029839455     -0.135143250
C       -4.157206092      1.284090455     -0.281894250
C       -2.774461092      1.411390455     -0.294983250
H        2.514957908     -2.113909545     -0.460576250
H        4.982588908     -1.600054545     -0.570814250
H        5.766467908      0.739183455     -0.209229250
H        4.096816908      2.531118455      0.258688750
H        1.685910908      1.995520455      0.349509750
H       -1.894823092     -1.843705545      0.085504750
H       -4.372135092     -2.079379545      0.112875750
H       -5.844750092     -0.073832545     -0.124325250
H       -4.779390092      2.178042455     -0.386442250
H       -2.326266092      2.402856455     -0.410715250
Li      -0.927731725      0.823365539     -2.363168338
