7
LiN2H4
N       -0.230792196      0.800269447      0.146335285
N       -0.212843602     -0.609297994      0.129187632
H       -0.474344353      1.185671672      1.059307448
H        0.697810921      1.140096032     -0.090397720
H        0.025711398     -1.008845994      1.037385632
H       -1.145679602     -0.934369994     -0.111589368
Li       1.216887733     -1.251436983     -1.236743124
