31
LiC13H11S2O4
O       -2.781181225     -1.023864181     -0.484733595
S       -1.886993225     -0.557478181      0.575241405
C       -0.382831225     -1.339758181      0.609899405
H       -0.033998225     -1.663469181      1.586556405
S        0.715546775     -1.268879181     -0.660619595
O        0.042301775     -0.757342181     -1.861763595
C        1.941596775      0.004534819     -0.242238595
C        3.067755775     -0.351222181      0.500149405
C        3.980958775      0.631478819      0.877218405
C        3.773156775      1.961435819      0.505312405
C        2.654237775      2.304068819     -0.254569595
C        1.737628775      1.325115819     -0.637241595
O        1.525928775     -2.489594181     -0.727185595
C       -1.585345225      1.172760819      0.145969405
C       -1.803127225      1.600605819     -1.160814595
C       -1.519196225      2.925097819     -1.495788595
C       -1.031056225      3.805344819     -0.527977595
C       -0.828727225      3.365201819      0.782139405
C       -1.108488225      2.043153819      1.123417405
O       -2.381800225     -0.545956181      1.960017405
H        3.212963775     -1.402384181      0.755493405
H        4.864220775      0.358554819      1.458902405
H        4.488711775      2.730427819      0.803642405
H        2.489207775      3.341093819     -0.554931595
H        0.864022775      1.570616819     -1.244027595
H       -2.166421225      0.873596819     -1.887769595
H       -1.674190225      3.271694819     -2.519515595
H       -0.807001225      4.840550819     -0.794848595
H       -0.447037225      4.054756819      1.537883405
H       -0.961930225      1.663874819      2.136866405
Li      -0.603151735     -3.580740238      0.763220303
