41
LiC17N2H20O
C       -6.081239000     -0.593449000     -0.888217000
O       -5.180241000     -1.002622000      0.105130000
C       -4.009361000     -0.338129000      0.223941000
C       -3.136748000     -0.791330000      1.224019000
C       -1.911463000     -0.171517000      1.415024000
C       -1.514487000      0.915648000      0.621769000
C       -0.138369000      1.505903000      0.767651000
C        0.888411000      0.912846000     -0.211302000
N        2.227155000      1.423444000      0.078605000
C        2.601222000      2.717387000     -0.427638000
C        3.127501000      0.362896000      0.042856000
C        4.512436000      0.353623000      0.061170000
C        5.167865000     -0.890926000      0.016894000
C        4.447167000     -2.074483000     -0.063341000
C        3.040261000     -2.060688000     -0.102094000
C        2.395670000     -0.837675000     -0.036129000
N        1.031320000     -0.539157000     -0.078612000
C        0.190243000     -1.393306000     -0.892588000
C       -2.397297000      1.363070000     -0.360161000
C       -3.635393000      0.749748000     -0.570987000
H       -6.947671000     -1.260773000     -0.822682000
H       -6.414276000      0.446084000     -0.730153000
H       -5.638371000     -0.676812000     -1.895028000
H       -3.451054000     -1.637617000      1.835542000
H       -1.230555000     -0.545764000      2.182550000
H       -0.174080000      2.595686000      0.610084000
H        0.256701000      1.324434000      1.776901000
H        0.586077000      1.172987000     -1.257028000
H        1.800993000      3.442349000     -0.227449000
H        3.502068000      3.075782000      0.088702000
H        2.802784000      2.705648000     -1.517255000
H        5.083352000      1.281990000      0.098447000
H        6.258051000     -0.918983000      0.033437000
H        4.973184000     -3.028767000     -0.110112000
H        2.475044000     -2.989300000     -0.188107000
H        0.106940000     -2.388686000     -0.433692000
H       -0.821606000     -0.977214000     -0.957089000
H        0.598462000     -1.511561000     -1.915468000
H       -2.116640000      2.212067000     -0.989253000
H       -4.295311000      1.131711000     -1.348541000
Li      -0.059539861      1.728503137     -3.490115703
