15
LiC6N3H5
N       -1.514885868      1.058211019      0.302588307
H       -1.976891010      1.958135660      0.302557117
N       -2.257112201     -0.058781638      0.316575520
N       -1.492033060     -1.077538746      0.313142525
C       -0.185269819     -0.644578156      0.297984380
C        1.022518907     -1.362073529      0.289456924
C        2.194295655     -0.630243351      0.273905214
C        2.180174197      0.786991891      0.266802655
C        1.001632363      1.510709499      0.274972170
C       -0.185845967      0.760691344      0.290806525
H        1.015413271     -2.451740263      0.295025205
H        3.154461628     -1.146994309      0.266811539
H        3.130505990      1.322681438      0.254437435
H        0.999992224      2.600354657      0.269373218
Li      -2.122932197     -3.058426791      0.330166902
