27
LiC10H16
C       -2.540381046     -1.288634179     -0.299806364
C       -1.325414928     -0.400987346     -0.309557464
C       -1.341700066      0.940343372     -0.294959688
C       -2.577832223      1.797835824     -0.266213762
C       -0.066040341      1.741388709     -0.306422871
H       -0.087878636      2.432954774     -1.171635260
H       -0.060726502      2.414642808      0.573366494
C        1.228677452      0.971945687     -0.334703818
C        2.443652477      1.859579700     -0.344278162
C        1.244940721     -0.369380431     -0.349289199
C        2.481125548     -1.226803594     -0.378002203
C       -0.030711287     -1.170422698     -0.338099153
H       -3.488088261     -0.740891085     -0.279551497
H       -2.542831742     -1.939214954     -1.189468690
H       -2.515535087     -1.957159366      0.576114443
H       -3.511996805      1.226979903     -0.259213108
H       -2.569493817      2.446813325      0.624595285
H       -2.595766962      2.468081460     -1.140975315
H        2.418891554      2.528173324     -1.220143560
H        2.446096575      2.510062542      0.545461233
H        3.391372101      1.311846388     -0.364499113
H        3.415236294     -0.655850477     -0.384528887
H        2.498868310     -1.897357981      0.496519012
H        2.473091572     -1.875464739     -1.269051680
H       -0.008846132     -1.862288790      0.526866559
H       -0.036025454     -1.843379192     -1.218124370
Li       0.038324439     -3.354879063      2.392891535
