16
LiC3N2H10
N        0.300786301      2.432502439      0.157985258
C        0.262617693      1.252408135     -0.691932829
C        0.278861852     -0.013193801      0.151938036
C        0.305732448     -1.289488440     -0.675395110
N        0.256663298     -2.458614225      0.188999059
H        0.298763399      3.279962346     -0.405200515
H       -0.540263597      2.469894704      0.732123740
H       -0.611771795      1.212703187     -1.375001211
H        1.156338615      1.264185842     -1.337658912
H        1.157729711      0.025692593      0.817167404
H       -0.608397210     -0.043636663      0.806380979
H       -0.579706074     -1.309600197     -1.332230034
H        1.188740410     -1.258455711     -1.347741585
H        1.066980831     -2.475830433      0.804189842
H       -0.560038361     -2.395770462      0.795173267
Li       0.198677744     -4.170057176     -0.989916418
