13
LiC3NH6O2
N       -1.103073201     -1.187568351     -0.227747310
C       -0.383183513      0.076243358     -0.422929829
C       -1.003081287      1.184743481      0.420413071
C        1.149106446     -0.017864968     -0.074670942
O        1.814447566      0.991966604     -0.361836670
O        1.503155959     -1.077605754      0.482553090
H       -0.814910201     -1.817020351     -0.978990310
H       -0.618170201     -1.618836351      0.568341690
H       -0.452237036      0.376074300     -1.483313572
H       -0.949504740      0.908418237      1.487269159
H       -0.426778599      2.108453170      0.276984252
H       -2.062932951      1.347903466      0.165493922
Li      -3.139181982     -0.791897702     -0.086514291
