37
LiC17NH16O2
O       -2.813440136     -2.212722508     -0.154811863
C       -2.729990136     -1.001515508     -0.133168863
C       -1.566844136     -0.150914508     -0.168491863
H       -1.750994136      0.929983492     -0.117961863
N       -0.373047136     -0.706155508     -0.199685863
C        0.813877864     -0.133817508     -0.177355863
C        1.981353864     -1.025384508     -0.169807863
C        1.801738864     -2.418971508      0.006590137
C        2.878386864     -3.293916508      0.002580137
C        4.187206864     -2.829315508     -0.177842863
C        4.382898864     -1.462485508     -0.368734863
C        3.305927864     -0.577607508     -0.369289863
C        1.000944864      1.339877492     -0.138894863
C        1.848733864      1.955519492      0.801496137
C        2.006255864      3.338510492      0.845933137
C        1.313460864      4.157176492     -0.047457863
C        0.463371864      3.567713492     -0.984189863
C        0.310359864      2.183871492     -1.028134863
O       -3.884820136     -0.238131508     -0.065100863
C       -5.082711136     -0.969172508     -0.009525863
C       -6.228215136      0.020695492      0.045818137
H        0.778826864     -2.774671508      0.137313137
H        2.696681864     -4.362564508      0.145342137
H        5.032435864     -3.520295508     -0.175894863
H        5.391826864     -1.072571508     -0.528874863
H        3.493311864      0.482694492     -0.547061863
H        2.387784864      1.322747492      1.510292137
H        2.670825864      3.782401492      1.591231137
H        1.432828864      5.241951492     -0.012315863
H       -0.084808136      4.193322492     -1.692651863
H       -0.352576136      1.730690492     -1.767507863
H       -5.166392136     -1.632480508     -0.887174863
H       -5.084181136     -1.633335508      0.871689137
H       -6.218620136      0.665117492     -0.844799863
H       -7.195389136     -0.500894508      0.093008137
H       -6.133082136      0.666494492      0.930337137
Li      -0.877178993      0.238965727      1.944895085
