21
LiC6N2H12
N       -0.961607156     -0.000386590      0.000361803
C       -0.470678156      0.783346410      1.130834803
C        1.090153844      0.784030410      1.129999803
N        1.580600844      0.000535410     -0.000797197
C        1.089014844      0.588202410     -1.244082197
C       -0.471610156      0.587745410     -1.243288197
C        1.089881844     -1.370394590      0.112563803
C       -0.469745156     -1.370964590      0.113054803
H       -0.875850156      1.803244410      1.047304803
H       -0.874792156      0.346740410      2.056841803
H        1.494284844      1.804275410      1.045704803
H        1.495635844      0.348090410      2.055736803
H        1.493422844      1.608381410     -1.328185197
H        1.493636844      0.006309410     -2.086138197
H       -0.876758156      0.005654410     -2.084967197
H       -0.876762156      1.607669410     -1.326910197
H        1.494831844     -1.954167590     -0.728063197
H        1.494929844     -1.807914590      1.037713803
H       -0.873809156     -1.808819590      1.038468803
H       -0.874836156     -1.954966590     -0.727337197
Li      -3.040606110     -0.002263470      0.001269962
