12
LiC5NH5
N       -0.000351955     -1.386185318      0.061324491
C        1.139159173     -0.699825546      0.020771328
C        1.197405820      0.692330654     -0.061509441
C        0.000590043      1.403226914     -0.103571159
C       -1.196704045      0.693131967     -0.061630859
C       -1.139397698     -0.699061828      0.020686029
H        2.062272351     -1.287164403      0.055537636
H        2.160863750      1.202112692     -0.091605537
H        0.000958248      2.492758819     -0.167978414
H       -2.159819006      1.203556170     -0.091838668
H       -2.062908416     -1.285784044      0.055328306
Li      -0.001052820     -3.461562094      0.184010051
