62
LiSiC30NH29
N        0.234065435     -1.332785776     -1.136613726
C        1.380400335     -0.687619318     -0.793672730
C        2.613713765     -1.233945945     -0.658798438
C        3.783155765     -0.482880945     -0.191347438
C        5.005025765     -1.151458945     -0.004677438
C        6.134942765     -0.485048945      0.463600562
C        6.077345765      0.875179055      0.761464562
C        4.871254765      1.555917055      0.582189562
C        3.743970765      0.892065055      0.113099562
C        0.223378739     -2.706054252     -1.601709630
C       -1.140563857     -2.831323847     -2.274763524
C       -2.021392728     -1.917566458     -1.419247926
C       -1.102257477     -0.726693352     -1.081104839
Si      -1.521352463      0.041744288      0.633245971
C       -0.334636731      1.457848343      1.009826377
C       -0.221013008      2.530195403      0.107284425
C        0.671658323      3.575587106      0.337065398
C        1.471675721      3.567598387      1.481636312
C        1.376306209      2.511836845      2.386096158
C        0.479937286      1.466775336      2.151021930
C       -3.286904273      0.710351459      0.578823010
C       -3.566003711      2.063845598      0.823426946
C       -4.872394160      2.552737078      0.775710357
C       -5.929825672      1.693317752      0.486167948
C       -5.677318654      0.341477282      0.250897737
C       -4.370817832     -0.141050263      0.297836686
C       -1.362472257     -1.329075131      1.913187438
C       -0.152060019     -2.035478610      2.045781913
C       -0.029868160     -3.080523393      2.960226356
C       -1.114006240     -3.441054561      3.761262457
C       -2.317120248     -2.747170980      3.650359352
C       -2.437977820     -1.700500999      2.734867227
H        1.246001987      0.378633154     -0.605284432
H        2.749024765     -2.309659945     -0.794332438
H        5.061774765     -2.218790945     -0.230990438
H        7.068431765     -1.034711945      0.598189562
H        6.959966765      1.399681055      1.130035562
H        4.804352765      2.621337055      0.812848562
H        2.817173765      1.457537055     -0.004710438
H        1.062727734     -2.876367206     -2.295362528
H        0.335146732     -3.417958352     -0.760045997
H       -1.081572660     -2.443823306     -3.302956907
H       -1.504801677     -3.865900460     -2.317293453
H       -2.940638083     -1.597055751     -1.926618100
H       -2.306818536     -2.456467305     -0.499851872
H       -1.204406974      0.048997937     -1.866813609
H       -0.840330528      2.551358158     -0.795290336
H        0.745317422      4.397087018     -0.377451617
H        2.174360522      4.382882815      1.662720545
H        2.007794058      2.495499678      3.275763250
H        0.420525280      0.642843739      2.866527428
H       -2.750433935      2.751156948      1.060438227
H       -5.063418596      3.609593889      0.969520866
H       -6.951814116      2.074458526      0.449101904
H       -6.501720132     -0.339290573      0.032122078
H       -4.197914377     -1.206191765      0.124548666
H        0.716391907     -1.764348677      1.437837597
H        0.918868542     -3.612445965      3.049507420
H       -1.017366766     -4.260716288      4.475450152
H       -3.166216454     -3.019825500      4.279551326
H       -3.387390119     -1.163849846      2.662664672
Li       3.676133407     -1.150052159     -2.648339927
