33
LiC10N5H12O5
N       -1.634737086      2.809191855     -1.571946842
C       -1.896914799      1.542282197     -1.037100926
N       -0.800437246      0.780672069     -0.839725703
C       -1.140492011     -0.383340160     -0.263299661
N       -0.288718550     -1.411853228      0.100633771
C       -1.101009028     -2.385718855      0.669388550
N       -2.356572089     -2.068034248      0.670466185
C       -2.413874812     -0.812996478      0.093072982
C       -3.545702539      0.075008651     -0.188338797
O       -4.715168738     -0.186752533      0.050578537
N       -3.158026583      1.276091887     -0.776749415
C        1.139743001     -1.453656817      0.044446610
H        1.437239945     -2.474073151      0.330765451
O        1.729240555     -0.531267096      0.941671412
C        2.502966434      0.453165889      0.275367117
H        3.577538384      0.248692198      0.440184439
C        2.135536248      1.802293250      0.863197352
O        2.331787718      1.807360743      2.253580189
C        2.189932570      0.316494096     -1.212945804
H        1.341564104      0.961423077     -1.476296501
O        3.350873497      0.591371446     -1.980008686
C        1.759796454     -1.154714246     -1.329032099
H        1.027228581     -1.327510646     -2.135660105
O        2.904120162     -1.957642481     -1.478605124
H       -0.817417942      2.828441905     -2.169740678
H       -2.465759845      3.208402199     -1.991807180
H       -0.663074962     -3.308727727      1.052985125
H        2.783284589      2.577044030      0.423788120
H        1.086335746      2.016219841      0.586633885
H        1.817603146      1.058002707      2.582222825
H        3.067023512      0.916902107     -2.839765435
H        3.577848971     -1.378862685     -1.865006471
Li      -3.946938557     -3.196340981      1.391506693
