35
LiC14H15O5
O       -1.076082832     -2.482587627     -0.722475271
C       -0.948589832     -1.277813627     -0.545933271
C       -2.247126832     -0.494039627     -0.372820271
C       -3.392836832     -0.973428627     -1.011585271
C       -4.629028832     -0.359626627     -0.816576271
C       -4.738587832      0.729100373      0.048644729
C       -3.603853832      1.196889373      0.713134729
C       -2.367245832      0.591773373      0.499301729
C        0.316280168     -0.579287627     -0.424465271
C        0.392216146      0.812749613     -0.803145766
O        1.439558618      1.498379970     -0.238750469
C        1.593478379      2.827694925     -0.672404969
C        2.853148883      3.375669833     -0.033936131
O       -0.387557185      1.421849551     -1.514107375
C        1.474631168     -1.370793627     -0.048257271
O        2.667485168     -0.849986627     -0.493406271
C        3.818357168     -1.536326627     -0.068915271
C        5.022106168     -0.764900627     -0.569652271
O        1.486712168     -2.411188627      0.572653729
H       -3.285903832     -1.848797627     -1.654349271
H       -5.514373832     -0.736887627     -1.333830271
H       -5.706990832      1.208380373      0.210196729
H       -3.683476832      2.039993373      1.403022729
H       -1.476829832      0.950111373      1.019941729
H        1.649814927      2.864192930     -1.772960389
H        0.708353780      3.424180854     -0.393643370
H        3.017622108      4.422602433     -0.328223448
H        2.777779056      3.325573938      1.061636750
H        3.724364779      2.780171728     -0.340475383
H        3.825241168     -1.625921627      1.030236729
H        3.811073168     -2.568496627     -0.457922271
H        4.989886168     -0.679629627     -1.665148271
H        5.023390168      0.251281373     -0.151144271
H        5.957379168     -1.267597627     -0.282549271
Li      -0.086970060     -0.069798803      1.736983178
