10
LiC3N2H4
N        0.803172584      0.798488926     -0.051631164
H        1.520457897      1.510634908     -0.027846732
C       -0.551857749      1.010254104     -0.077634802
C       -1.107548494     -0.245797579     -0.104529117
N       -0.129482748     -1.202375342     -0.095647582
C        1.001672778     -0.548263975     -0.063819422
H       -0.987187265      2.004151431     -0.074742455
H       -2.163401800     -0.505113997     -0.129885858
H        1.997383040     -0.988383796     -0.048204237
Li      -0.395457676     -3.264060013     -0.126545024
