20
LiC6N2H10S
C        1.871044677      1.230719288     -0.403438535
C        2.259429551     -0.076060695      0.268850416
S        1.144123238     -1.451205890     -0.177720322
C       -0.416015994     -0.633880971     -0.110075519
N       -1.498715683     -1.295161923     -0.005730866
C       -2.581218494     -0.324697890     -0.162045555
C       -1.920321222      1.055013939      0.013535833
N       -0.532307376      0.741777715     -0.304849722
C        0.494157273      1.697601289      0.043733436
H        2.609764223      2.005820505     -0.148857034
H        1.877497995      1.101782886     -1.496266037
H        3.256221917     -0.409890268     -0.048178927
H        2.273821700      0.037384953      1.363140666
H       -3.014717353     -0.429690277     -1.171405387
H       -3.386058448     -0.509848058      0.561684589
H       -2.322102556      1.828522803     -0.656201322
H       -2.001320897      1.419371879      1.057262810
H        0.501776636      1.890638243      1.138071036
H        0.247952497      2.652090759     -0.445725192
Li      -1.689820610     -3.344437829      0.287847347
