9
LiSiCH4Cl2
C       -1.932659763      1.210387212     -0.034517105
Si      -0.411766006      0.152551991     -0.025804513
H        0.852719866      0.913113547     -0.008634294
Cl      -0.441648036     -1.063185918      1.640380533
Cl      -0.408382130     -1.042926733     -1.706846861
H       -1.963883229      1.842960690      0.863972838
H       -1.946096561      1.853792903     -0.925728000
H       -2.827975797      0.573265560     -0.047271263
Li       2.900651844      2.144901395      0.019174193
