14
LiC5H8
C        2.143445753     -0.523679614      0.134530631
C        0.912663140     -0.520283979      0.643125926
C       -0.203045346      0.385040110      0.192350295
C       -1.355745983     -0.398299744     -0.377981283
C       -2.587069766     -0.419654262      0.128861818
H        2.907508575     -1.214428735      0.495734081
H        2.430320481      0.169797553     -0.661307809
H        0.655144164     -1.233181443      1.434671240
H       -0.563937344      0.986777860      1.042608262
H        0.186344005      1.084215813     -0.565805717
H       -1.127092294     -1.003160495     -1.262822061
H       -3.379386318     -1.018700015     -0.323657416
H       -2.845909614      0.166672842      1.015308729
Li       1.030544022      2.600035745     -2.209495549
