49
LiSiC16H30O
C       -0.853550008      4.866341205      0.824730117
C       -0.668059380      3.458562055      1.378306778
C       -0.413302425      2.417744298      0.290249944
C       -0.228033111      0.996657296      0.829045892
Si       0.035012852     -0.292579478     -0.520855663
C        0.131640840     -1.986078668      0.293121001
C        1.029024862     -3.017092539      0.195012746
C        0.568170078     -4.060913026      1.060232996
C       -0.577757430     -3.587397293      1.622708405
O       -0.847900590     -2.349329174      1.171963276
C       -1.415738307     -0.264375041     -1.726542266
C       -2.780282287     -0.394714264     -1.043290996
C       -3.951918315     -0.453211856     -2.020883789
C       -5.301761796     -0.568674705     -1.322700819
C        1.669224721     -0.028888751     -1.423768663
C        2.874249661      0.176793072     -0.501346023
C        4.204385723      0.272834713     -1.245412913
C        5.391246881      0.496878931     -0.316529583
H        0.040109476      5.192761841      0.271370889
H       -1.705914258      4.906353731      0.129531947
H       -1.038207813      5.597129963      1.624356647
H        0.171981129      3.443039605      2.092809876
H       -1.560764684      3.159389546      1.952607733
H       -1.255074331      2.438365262     -0.425599282
H        0.478093317      2.717648129     -0.290576518
H        0.627019235      0.959633017      1.525669154
H       -1.109882434      0.695030817      1.420822159
H        1.921805320     -3.024422859     -0.426732201
H        1.026850048     -5.028886812      1.240205606
H       -1.252458430     -3.979849293      2.377962405
H       -1.375429116      0.668088699     -2.317290140
H       -1.274619464     -1.087946009     -2.447974351
H       -2.792119930     -1.296071401     -0.405850991
H       -2.931128415      0.456808262     -0.355595492
H       -3.933611069      0.447579437     -2.657386099
H       -3.807265505     -1.309024816     -2.701312167
H       -6.130801880     -0.613631756     -2.042720908
H       -5.345059781     -1.476158482     -0.701618055
H       -5.477335985      0.292936576     -0.660751677
H        1.838790540     -0.899215807     -2.083035006
H        1.561455699      0.837090786     -2.100142647
H        2.729532743      1.095840723      0.093880505
H        2.929917237     -0.646695121      0.232810708
H        4.354051809     -0.651091434     -1.829367918
H        4.143989228      1.090704594     -1.983018347
H        5.276548742      1.433279647      0.250201297
H        5.479716414     -0.321798300      0.413625845
H        6.337538195      0.554760511     -0.872401723
Li       2.642347524     -2.737355229      1.748391652
