40
LiC19N2H18
N       -6.643055273     -0.282478707     -0.219614696
C       -5.500541273     -0.455716707     -0.216513696
C       -4.077588273     -0.670269707     -0.211364696
C       -3.534689273     -1.809324707      0.398663304
C       -2.161542273     -2.003844707      0.400561304
C       -3.220103273      0.250701293     -0.830423696
C       -1.848276273      0.045413293     -0.825777696
C       -1.278911273     -1.077248707     -0.190425696
C        0.156677727     -1.365816707     -0.153647696
C        1.188555741     -0.471823999     -0.118455113
C        0.975381922      1.000343096      0.003737056
C        0.280001096      1.524102163      1.098302086
C        0.066276816      2.896882836      1.202496670
C        0.545631581      3.756827685      0.214504548
C        1.245865852      3.241074484     -0.876440160
C        1.464840016      1.868933536     -0.978664490
N        2.499334849     -0.865176243     -0.188850889
C        2.871030375     -2.255830895     -0.385643067
C        4.395426678     -2.211139450     -0.436119188
C        4.717982161     -1.095467514      0.558840411
C        3.632043860     -0.056192944      0.273856211
H       -4.197637273     -2.535889707      0.869724304
H       -1.747477273     -2.892545707      0.880807304
H       -3.641340273      1.125309293     -1.327337696
H       -1.207752273      0.759991293     -1.341246696
H        0.403858727     -2.426956707     -0.090195696
H       -0.105106250      0.841062764      1.857913782
H       -0.479776531      3.297612765      2.057706258
H        0.373552068      4.831173886      0.294434619
H        1.618628833      3.910871724     -1.652846317
H        2.001331600      1.456513139     -1.836133435
H        2.522859656     -2.883744962      0.458409986
H        2.407648458     -2.652993175     -1.302570832
H        4.856666140     -3.173915972     -0.181829547
H        4.728730065     -1.928293494     -1.446423156
H        4.612484727     -1.474190711      1.586983367
H        5.730567240     -0.685868376      0.450931156
H        3.959897247      0.652853771     -0.505348411
H        3.363583879      0.535332115      1.161082683
Li      -0.255690202     -1.927894283     -2.300289372
