20
LiC5H9SO4
C       -4.455897989     -0.358248027      0.524167011
C       -3.065528989     -0.962812027      0.524167011
O       -2.142400989      0.091718973      0.524167011
C       -0.799676989     -0.304425027      0.524167011
O       -0.538748989     -1.497485027      0.524167011
C        0.052953011      0.810507973      0.524167011
H       -0.325549989      1.828502973      0.524167011
S        1.748001011      0.603958973      0.524167011
C        2.292235011      2.327899973      0.524167011
O        2.292235011      0.031524973      1.766923011
O        2.292235011      0.031524973     -0.718588989
H       -5.227449989     -1.142650027      0.524167011
H       -4.596516989      0.274286973      1.412686011
H       -4.596516989      0.274286973     -0.364351989
H       -2.913653989     -1.611929027      1.403917011
H       -2.913653989     -1.611929027     -0.355582989
H        1.932896011      2.824946973      1.432523011
H        3.386896011      2.260375973      0.524167011
H        1.932896011      2.824946973     -0.384188989
Li       0.499323089      1.394199293      2.658202436
