21
LiC10H10
C        0.416984171      0.198797269      0.272465131
C        1.565787656      1.000337693      0.228070367
C        2.813601429      0.497619103      0.574640657
C        2.930111326     -0.834679301      0.976471265
C        1.796340734     -1.636087112      1.023250994
C        0.533792002     -1.136955094      0.675362091
C       -0.662107536     -2.059538814      0.747007235
C       -1.958063875     -1.417080084      0.351692526
C       -2.069232615     -0.145795939     -0.031778952
C       -0.912564046      0.804668653     -0.117011161
H        1.468628974      2.042551222     -0.087269109
H        3.694249819      1.140589571      0.532415088
H        3.902889995     -1.245208880      1.251977784
H        1.881595528     -2.679804135      1.337057039
H       -0.479677991     -2.940569197      0.107162311
H       -0.749803837     -2.461099265      1.771696218
H       -2.851349550     -2.046508687      0.387465223
H       -3.052000988      0.248056633     -0.304663261
H       -1.112169832      1.682933309      0.521524951
H       -0.842169518      1.205046819     -1.143484439
Li      -1.544269060      3.584168169      1.903804324
