16
LiC7N2H6
N        1.545806340      1.036668999      0.134413686
H        1.924578340      1.973206999      0.134571686
C        2.263504167     -0.132440026      0.138102360
N        1.522113359     -1.198804795      0.128891212
C        0.222848668     -0.728384907      0.118215226
C       -0.989905668     -1.432126910      0.105530428
C       -2.168398293     -0.701680940      0.096579929
C       -2.158156419      0.708923225      0.100035630
C       -0.971066021      1.427708363      0.112520214
C        0.214095874      0.684623272      0.121504852
H        3.353385512     -0.123820126      0.147990492
H       -0.985653310     -2.522192551      0.102970402
H       -3.125959955     -1.223895951      0.086647037
H       -3.106486861      1.248163716      0.092719398
H       -0.967727945      2.518187388      0.115150886
Li       2.133335185     -3.185925380      0.129703264
