32
LiSiC9H20O
C        0.677479720     -1.912647888     -0.042407059
C        0.857557004     -0.736730404     -0.659731227
O       -0.157094618      0.088430496     -1.015031025
Si      -1.831335737     -0.068157324     -0.817579751
C       -2.256023990     -0.146666259      1.005932841
C       -2.508145247      1.498143876     -1.576773478
C       -2.448903368     -1.568342848     -1.755529729
C        2.203758708     -0.147874261     -1.054947453
C        3.364043820     -1.061858009     -0.663991902
C        2.208940336      0.062705492     -2.577177683
C        2.361405206      1.208737511     -0.350448486
H        1.537438720     -2.576845888     -0.041835059
H       -0.311361280     -2.371323888     -0.042943059
H       -1.812049828      0.711832811      1.531721590
H       -3.347685530     -0.098320062      1.139944135
H       -1.894411777     -1.063803006      1.490564424
H       -2.222908289      1.570296614     -2.636531510
H       -3.606120931      1.525147726     -1.514285358
H       -2.113027207      2.383328298     -1.057172558
H       -2.090652318     -2.516026842     -1.330878414
H       -3.549642649     -1.587565342     -1.750819214
H       -2.115662794     -1.519176273     -2.802964893
H        3.289592742     -2.040368051     -1.160973243
H        4.314717861     -0.599190733     -0.967405296
H        3.398296444     -1.224729875      0.423350924
H        1.381609376      0.718112528     -2.879722131
H        3.156428923      0.525820249     -2.891631494
H        2.102179690     -0.898334304     -3.102565693
H        2.365410537      1.080624929      0.742532029
H        3.310126475      1.680933244     -0.647178317
H        1.536462235      1.881893174     -0.618585477
Li       0.591125838     -3.550752550     -1.592634502
