32
LiBC10NH16O3
C       -0.602097231      0.506801663      2.056380630
N       -1.487244231      0.350140663      0.897278630
C       -1.952260231      1.653302663      0.369231630
C       -1.053723231      1.914169663     -0.841037370
O       -0.983409231      0.686067663     -1.488319370
B       -0.672671231     -0.375861337     -0.577112370
O       -1.441154231     -1.563540337     -0.696108370
C       -2.739658231     -1.329823337     -0.246068370
C       -2.565146231     -0.637972337      1.109781630
C        0.857566769     -0.635144337     -0.238985370
O        1.713356961      0.433902203     -0.201192204
C        2.935307058      0.002104698      0.182620592
C        4.016837604      1.020002384      0.269958988
C        2.897453908     -1.343141329      0.403906250
C        1.549325793     -1.752460161      0.133837949
H       -1.165600231      0.862443663      2.933734630
H       -0.125693231     -0.456610337      2.276386630
H        0.191478769      1.222711663      1.806845630
H       -2.991159231      1.543735663      0.028193630
H       -1.914540231      2.430493663      1.147123630
H       -1.485508231      2.677839663     -1.504700370
H       -0.056933231      2.267027663     -0.514526370
H       -3.304031231     -0.681180337     -0.942823370
H       -3.288052231     -2.277101337     -0.141854370
H       -2.200709231     -1.372831337      1.840718630
H       -3.477854231     -0.163961337      1.503309630
H        3.766006348      1.809069617      0.994756338
H        4.952711539      0.543496049      0.584847262
H        4.180613791      1.502522849     -0.704982824
H        3.735799225     -1.960846308      0.714826433
H        1.131543833     -2.754187246      0.189340049
Li       1.003117421     -0.393902160     -2.478330413
