10
LiC4NH2O2
O        2.272048860      0.582569899     -0.202539737
C        1.092573445      0.261309723     -0.158175102
N        0.001599874      1.051427370     -0.026493844
C       -1.093372126      0.255886370     -0.026009844
O       -2.271270675      0.571429957      0.070563456
C       -0.667146552     -1.220926067     -0.174939632
C        0.658839948     -1.217669220     -0.254713537
H       -1.378646207     -2.048145359     -0.200775090
H        1.366146625     -2.041398095     -0.365974479
Li       0.006838673      3.123316619      0.145228312
