28
LiSiC8H18
C        2.389688859     -1.505182039     -0.036715120
C        2.245591133     -0.007671299     -0.063912112
C        3.463101468      0.751661471      0.390765099
C        1.134342357      0.632318123     -0.461740927
C       -0.131169643      0.038621123     -1.006115927
Si      -1.483648643     -0.049581877      0.326893073
C       -1.784113643      1.680012123      1.009196073
C       -3.070904643     -0.720536877     -0.435800927
C       -0.904609643     -1.183807877      1.713455073
H        2.566292958     -1.856528103      0.993549438
H        1.506256051     -2.028436559     -0.422181352
H        3.263342542     -1.819379206     -0.630660946
H        4.331268281      0.518023281     -0.247192320
H        3.298404542      1.837064183      0.364349365
H        3.742333916      0.468925886      1.419068048
H        1.183330357      1.727648123     -0.472760927
H       -0.512676643      0.654474123     -1.836666927
H        0.023963357     -0.973984877     -1.410914927
H       -2.099359643      2.370981123      0.212460073
H       -2.571741643      1.668704123      1.777710073
H       -0.869000643      2.083476123      1.467974073
H       -2.912553643     -1.722091877     -0.863629927
H       -3.867245643     -0.799563877      0.319891073
H       -3.433052643     -0.062269877     -1.239858927
H        0.054937357     -0.828682877      2.119347073
H       -1.636826643     -1.205807877      2.534790073
H       -0.765109643     -2.215345877      1.355835073
Li       1.320010924      1.133147049     -2.654626371
