8
LiC2H3SO
C        1.280134823     -1.213102891      0.003660419
C        0.412579215      0.065372215      0.003140032
O        1.003198066      1.139483395      0.003762632
S       -1.291564029     -0.214467411      0.001628732
H        1.037166790     -1.821696256      0.886748913
H        1.038622844     -1.821416857     -0.880019466
H        2.348781463     -0.944848148      0.004583449
Li      -2.477187952      1.984956254     -0.041178425
