18
LiC6H9O2
C        0.258305470      0.433025702      2.530962075
C        0.188892470     -0.437264298      1.248560075
C        0.142948470      0.270327702      0.001969075
C        0.130868470      1.785191702      0.001969075
C        0.188892470     -0.437264298     -1.244621925
C        0.258305470      0.433025702     -2.527023925
O        0.188892470     -1.655007298     -1.422164925
O        0.188892470     -1.655007298      1.426103075
H       -0.688154530      0.972239702      2.702956075
H        0.435300470     -0.248708298      3.372707075
H        1.059482470      1.188023702      2.488420075
H        1.137606470      2.259414702      0.001969075
H       -0.394220530      2.195907702     -0.874453925
H       -0.394220530      2.195907702      0.878392075
H        1.059482470      1.188023702     -2.484481925
H        0.435300470     -0.248708298     -3.368768925
H       -0.688154530      0.972239702     -2.699017925
Li      -2.012468982      0.939475426     -0.019616342
