17
LiC7H7O2
O        2.065182369     -1.814598251      0.138541690
C        1.398056230     -0.758252412      0.140608661
C        1.987858032      0.566517432      0.142466525
C        1.215378300      1.715887379      0.145276551
C       -0.185024692      1.683346928      0.146688256
C       -0.797728221      0.419947521      0.145219743
O       -2.179521604      0.436910326      0.146778345
C       -2.834271874     -0.789002921      0.145545221
C       -0.056590445     -0.752709520      0.142388802
H        3.079901966      0.616766868      0.141492375
H        1.716242677      2.691015202      0.146480682
H       -0.802360673      2.581563765      0.148921367
H       -2.587255709     -1.392071521     -0.747103313
H       -2.585068347     -1.395025786      1.035577920
H       -3.913947415     -0.579994533      0.147207963
H       -0.523002320     -1.738325002      0.141271096
Li       2.514052399     -2.294092905     -1.741001226
