20
LiC7H9O3
O       -2.416400432      0.997340278     -0.092052697
C       -1.737349432     -0.026934722     -0.124562697
C       -0.309638432     -0.143961722     -0.195524697
C        0.311800263     -1.527907226     -0.171126260
C        1.804290866     -1.479813388     -0.468537844
C        2.398263883     -0.329447364      0.319802407
O        1.891508528      0.890078989     -0.131580647
C        0.488756306      1.049198830     -0.257874054
O        0.141512655      2.197113192     -0.414414861
C       -2.511114432     -1.366134722     -0.072206697
H        0.181909338     -2.028414085      0.813506600
H       -0.175749835     -2.202138005     -0.898575741
H        2.300086907     -2.432481860     -0.217191278
H        1.977751658     -1.277197280     -1.538672904
H        2.178960656     -0.477011775      1.398293468
H        3.494804018     -0.279884190      0.210204017
H       -2.415961432     -1.920382722     -1.020242697
H       -2.148387432     -2.031762722      0.727034303
H       -3.568217432     -1.125593722      0.096974303
Li       0.057342205     -0.746973347      1.948245625
