29
LiSiC11H16
C        2.689083163     -1.925961192      0.348238073
Si       2.520742986     -0.051733163      0.340738186
C        0.701567960      0.406219087      0.345463839
C       -0.293990201     -0.495722619      0.353901582
C       -1.748212201     -0.236693619      0.353477582
C       -2.627600201     -1.328346619      0.352965582
C       -4.008287201     -1.141897619      0.352375582
C       -4.536403201      0.147255381      0.352310582
C       -3.672843201      1.245103381      0.352939582
C       -2.295206201      1.055891381      0.353554582
C        3.347550721      0.677763775      1.868474900
C        3.336229227      0.664494460     -1.199298868
H        2.216662249     -2.373364387     -0.539200791
H        3.751401010     -2.213273723      0.344742268
H        2.224563085     -2.365514146      1.243728770
H        0.433434177      1.471286165      0.340898362
H       -0.038940201     -1.563124619      0.355659582
H       -2.216037201     -2.340328619      0.353024582
H       -4.673234201     -2.006953619      0.351966582
H       -5.616734201      0.299325381      0.351851582
H       -4.078789201      2.258009381      0.353041582
H       -1.634466201      1.924130381      0.354239582
H        4.423429059      0.445509981      1.880224130
H        3.238684302      1.772555926      1.889534620
H        2.899624679      0.275202779      2.788933598
H        2.882443973      0.253176074     -2.112983943
H        3.226169787      1.758955535     -1.229601219
H        4.412240222      0.433167583     -1.216227637
Li      -0.792730254     -1.019671410      2.491841017
