36
LiBC18H10F6
F        2.482279604      1.361094156      0.874024167
C        2.703945110      0.132232909      0.380004224
C        4.033222619     -0.255339219      0.259399607
C        4.314168182     -1.523079780     -0.247029911
C        3.262729782     -2.356666756     -0.610508375
C        1.952186945     -1.900448062     -0.459644240
F        0.992532554     -2.771055844     -0.816078662
C        1.594949170     -0.645055141      0.031098391
B        0.085523231     -0.077551936      0.310058260
H       -0.032319550      0.002288964      1.524757199
C       -0.186960058      1.424194920     -0.298625300
C        0.539607300      2.103233415     -1.276981747
F        1.621716588      1.520451616     -1.814312668
C        0.230130238      3.374885074     -1.758718886
C       -0.886966239      4.033936384     -1.254656939
C       -1.668853700      3.409563417     -0.285689277
C       -1.300130140      2.139742740      0.150262920
F       -2.091894906      1.571434235      1.072197649
C       -1.120413518     -1.014010543     -0.276335171
C       -2.153795872     -1.548097853      0.489259099
F       -2.144852156     -1.377822547      1.818089286
C       -3.226202301     -2.273965380     -0.032995360
C       -3.287466477     -2.491379284     -1.405771037
C       -2.283530700     -1.984352217     -2.230507013
C       -1.248025613     -1.267553396     -1.641908165
F       -0.290555475     -0.793648328     -2.454399389
H        4.816155559      0.441125904      0.560017134
H        5.347166089     -1.858037780     -0.355974522
H        3.422637794     -3.358479979     -1.010092112
H        0.872370946      3.815227034     -2.521930737
H       -1.150223535      5.029187742     -1.617328407
H       -2.558119356      3.876308595      0.138309252
H       -3.987729326     -2.651804750      0.649849341
H       -4.116693065     -3.056572249     -1.835442869
H       -2.283874264     -2.131705128     -3.310591721
Li      -0.262607201      0.158313570      3.898514542
