13
LiC2N2H8
N       -0.500319714      1.825957167      0.227971007
C       -0.514401839      0.372960919      0.225507199
C        0.905222978     -0.172975617      0.218522835
N        0.891139417     -1.625567445      0.184155591
H       -1.442810918      2.194244279      0.126566429
H       -0.153034063      2.173033454      1.120552406
H       -1.063127572     -0.081901850      1.078359852
H       -1.015243295      0.017502994     -0.687123143
H        1.405982733      0.205502628     -0.684848919
H        1.454025953      0.260122933      1.082582240
H        0.385237173     -1.990820147      0.987188180
H        0.385877717     -1.945185574     -0.640662991
Li       2.850202882     -2.321442995      0.175875575
