19
LiSiC7H10
C        2.654125616     -0.489143239      1.331739330
Si       1.743013805     -0.458981497     -0.312625239
H        2.128212867      0.758771298     -1.079563711
H        2.097555225     -1.668224235     -1.107354196
C       -0.119489616     -0.438941003     -0.045527751
C       -0.814615461      0.771190352      0.098961798
C       -2.187102124      0.788833315      0.344791328
C       -2.890928935     -0.410361857      0.450099977
C       -2.218625970     -1.623700026      0.307720386
C       -0.846019006     -1.634367347      0.062032711
H        3.743187518     -0.500621022      1.182500750
H        2.395409909      0.396724812      1.929445705
H        2.373760344     -1.382235578      1.908573246
H       -0.278685310      1.720534573      0.011570258
H       -2.709807244      1.740966013      0.451222482
H       -3.965638545     -0.399249231      0.639527496
H       -2.766015500     -2.564706195      0.384977956
H       -0.334972183     -2.594201958     -0.054775557
Li       2.746166734      2.712345761     -2.309921316
