17
LiC7NH6O2
O       -3.329212131     -0.542639239      0.074890254
N       -2.214946131      0.013789761      0.074935254
C       -1.097034131     -0.774359239      0.075026254
H       -1.331519262     -1.832979315      0.010170935
C        0.258399258     -0.333749241      0.011121061
C        0.707152450      1.016527968     -0.026745801
C        2.063307796      1.319435669     -0.088788152
C        3.045098444      0.325606661     -0.116869556
C        2.625344934     -1.008552911     -0.080473987
C        1.277527556     -1.328412648     -0.018553915
O       -2.128501131      1.256540761      0.074901254
H       -0.043480665      1.801815225     -0.005621665
H        2.362597148      2.371649863     -0.116142036
H        4.105683341      0.580072204     -0.165624923
H        3.364226983     -1.815064007     -0.100803289
H        0.975420401     -2.379158797      0.008896577
Li      -0.496353457     -1.197836748     -2.058960279
