51
LiSi4C12H34
C       -0.693039416      2.640750960     -2.252708668
Si       0.018722367      2.860006878     -0.518529594
C        1.842951370      3.321840525     -0.667288683
C       -0.885319295      4.277649308      0.334354822
C       -0.159320577      1.293925107      0.524709529
Si       0.020464851     -0.370077403     -0.346104919
H        0.122792307     -1.441143672      0.696753130
C       -1.495361217     -0.771908045     -1.392493908
Si      -3.178975358     -0.635663344     -0.549177880
C       -3.779674183      1.154532260     -0.548638670
C       -4.438646192     -1.672208814     -1.493277034
C       -3.066820586     -1.270165322      1.222923066
C        1.595715324     -0.412768579     -1.381951092
Si       3.201549215     -0.707673300     -0.430856402
C        3.350851059     -2.550819005     -0.071665275
C        4.668094638     -0.144267689     -1.472484521
C        3.214793329      0.226661274      1.208181823
H       -0.155686496      1.865638413     -2.820521354
H       -1.756541801      2.361122049     -2.217484598
H       -0.611052918      3.583982412     -2.814477758
H        1.959127110      4.223955249     -1.287416622
H        2.272953828      3.538935582      0.322870545
H        2.439057018      2.518706862     -1.127132620
H       -1.964716082      4.075957411      0.409567156
H       -0.498608230      4.428182074      1.353768948
H       -0.756573359      5.219536929     -0.220296301
H        0.592033862      1.353690286      1.330099854
H       -1.141405914      1.311074808      1.027399381
H       -1.499212926     -0.151760234     -2.304592013
H       -1.371293945     -1.816603515     -1.729403587
H       -3.947218775      1.508879971     -1.577715899
H       -4.736405693      1.234680983     -0.009959865
H       -3.065279599      1.838875368     -0.067077278
H       -4.159386848     -2.736812504     -1.486012455
H       -5.440729992     -1.581032953     -1.046934328
H       -4.504068091     -1.346857419     -2.542670583
H       -2.380848802     -0.663344139      1.833625029
H       -4.055247318     -1.253076904      1.706732538
H       -2.697830629     -2.307119368      1.242209381
H        1.501587364     -1.224736421     -2.123985258
H        1.666441959      0.523981403     -1.959523642
H        3.391131917     -3.133942593     -1.004197401
H        4.263762800     -2.768143308      0.503266592
H        2.489076690     -2.905084174      0.514032281
H        4.615853537      0.935507731     -1.680352528
H        5.619935621     -0.341961432     -0.956168114
H        4.689323353     -0.672969134     -2.437473810
H        2.421362593     -0.138744374      1.878904907
H        4.178898243      0.079691138      1.718874139
H        3.071962715      1.307807502      1.061673532
Li       0.286007999     -3.149529940      2.360146348
