53
LiBC21H22O2F6
C       -5.000519662     -0.955879323     -1.502840012
C       -3.783239662     -1.467481323     -0.719824012
C       -4.021823662     -2.914432323     -0.298996012
O       -2.647574662     -1.403028323     -1.540038012
B       -1.966385662     -0.102591323     -1.319874012
C       -0.388922662     -0.371608323     -0.961055012
C        0.387973338      0.580899677     -0.282917012
C        1.745973338      0.374607677     -0.037452012
C        2.522048338      1.409101677      0.722321988
F        2.325539338      1.317809677      2.047350988
F        3.846024338      1.292981677      0.531708988
F        2.184480338      2.652965677      0.375947988
C        2.380553338     -0.794576323     -0.457581012
C        1.620081338     -1.752539323     -1.121623012
C        2.249736338     -3.028623323     -1.592480012
F        3.555992338     -3.100345323     -1.297952012
F        1.673839338     -4.108305323     -1.045679012
F        2.146709338     -3.184588323     -2.919219012
C        0.258601338     -1.543759323     -1.365468012
C       -2.054807662      0.885039677     -2.652540012
C       -1.344723106      2.173136327     -2.400269458
C       -0.048365604      2.405170142     -2.886526816
C        0.663442909      3.555878978     -2.550968410
C        0.092979946      4.517418485     -1.718666886
C       -1.198172350      4.308310401     -1.229531066
C       -1.904099994      3.155155908     -1.564120076
O       -2.703409662      0.516760677     -0.192299012
C       -3.418686662     -0.498382323      0.460130988
C       -4.621930662      0.112541677      1.171018988
C       -2.515139662     -1.189276323      1.491544988
H       -5.946144662     -1.102029323     -0.957099012
H       -4.879654662      0.113554677     -1.726066012
H       -5.050435662     -1.503545323     -2.455404012
H       -4.294558662     -3.510880323     -1.182874012
H       -3.109009662     -3.347053323      0.130042988
H       -4.838081662     -2.991907323      0.437445988
H       -0.084883662      1.511021677      0.048103988
H        3.443198338     -0.950543323     -0.274964012
H       -0.331546662     -2.310540323     -1.877230012
H       -1.624002662      0.357535677     -3.518906012
H       -3.126399662      1.049443677     -2.849260012
H        0.415837814      1.647365232     -3.523501190
H        1.676986974      3.695604953     -2.934054320
H        0.651332899      5.414772592     -1.445125709
H       -1.655106433      5.047675626     -0.567243307
H       -2.895636687      2.973571180     -1.144544845
H       -5.203134662      0.739046677      0.481985988
H       -5.279095662     -0.666903323      1.589346988
H       -4.272623662      0.751844677      1.995702988
H       -2.081205662     -0.416069323      2.142733988
H       -3.069230662     -1.909837323      2.113526988
H       -1.688739662     -1.713867323      0.990869988
Li      -2.174950469      2.226976761     -4.463291119
