31
LiC13H10S2O4F
F        0.000098132      0.027735066     -1.554382773
C       -0.001508868     -0.408161934     -0.230752773
S       -1.483378868     -1.304368934      0.013789227
O       -1.509680868     -1.874673934      1.359169227
C       -2.667701868      0.056289066      0.004281227
C       -3.167307868      0.516707066     -1.210701773
C       -4.079614868      1.571028066     -1.210090773
C       -4.491215868      2.140236066     -0.004113773
C       -3.990402868      1.658089066      1.207062227
C       -3.070332868      0.611337066      1.215090227
O       -1.884089868     -2.127955934     -1.130673773
S        1.479951132     -1.304249934      0.017241227
O        1.881769132     -2.130878934     -1.124674773
C        2.664218132      0.056457066      0.005340227
C        3.065646132      0.614458066      1.215187227
C        3.985858132      1.661069066      1.205537227
C        4.487996132      2.140120066     -0.006312773
C        4.077590132      1.567971066     -1.211302773
C        3.165147132      0.513760066     -1.210257773
O        1.505119132     -1.871213934      1.364050227
H       -2.834020868      0.035391066     -2.131291773
H       -4.476324868      1.947747066     -2.155132773
H       -5.208004868      2.963974066     -0.007482773
H       -4.320102868      2.101410066      2.148910227
H       -2.654379868      0.203185066      2.138142227
H        2.648710132      0.208601066      2.138808227
H        4.314596132      2.106719066      2.146618227
H        5.204892132      2.963760066     -0.011004773
H        4.475306132      1.942331066     -2.156856773
H        2.832816132      0.030151066     -2.129986773
Li       0.037651323      1.393859358      1.127641406
