47
LiBC18H18SO2F6
C        3.651652411      4.123703153      1.692028339
C        3.081299140      2.741544115      1.595174494
S        2.492282691      2.094535791      0.096775685
C        2.934639445      1.812445830      2.590141300
C        2.341658748      0.590953139      2.135109901
C        2.032361160      0.575569130      0.798888047
B        1.262962160     -0.570714870     -0.104838953
C       -0.343707840     -0.300797870     -0.077228953
C       -0.916617840      0.794379130     -0.738332953
C       -2.293184840      1.018775130     -0.715889953
C       -2.872062840      2.162103130     -1.494262953
F       -3.035036840      1.858937130     -2.791146953
F       -4.081085840      2.527317130     -1.040506953
F       -2.095784840      3.249447130     -1.457356953
C       -3.146985840      0.160368130     -0.022359953
C       -2.589352840     -0.930377870      0.637161047
C       -3.464879840     -1.891969870      1.383724047
F       -4.750627840     -1.510266870      1.400584047
F       -3.437752840     -3.120089870      0.848698047
F       -3.088136840     -2.033311870      2.660649047
C       -1.210157840     -1.159120870      0.605861047
O        1.711767160     -0.484323870     -1.507674953
C        2.996474160     -0.967212870     -1.719691953
C        3.158993160     -2.413854870     -1.217407953
C        2.211775160     -3.334123870     -1.984983953
C        4.605874160     -2.863048870     -1.380794953
C        2.777164160     -2.403878870      0.274070047
O        1.500906160     -1.900285870      0.480923047
H        4.490107059      4.269923179      0.993329439
H        2.898066992      4.894367273      1.465073826
H        4.023318281      4.304230725      2.710676864
H        3.246046068      2.001707837      3.620038776
H        2.138020748     -0.270234985      2.774578125
H       -0.265686840      1.485841130     -1.281231953
H       -4.220741840      0.342624130      0.005555047
H       -0.779238840     -2.026049870      1.114291047
H        3.224413160     -0.927304870     -2.802787953
H        3.755967160     -0.337964870     -1.202254953
H        2.450869160     -3.332722870     -3.061357953
H        2.287136160     -4.370250870     -1.615398953
H        1.176974160     -2.990110870     -1.856718953
H        5.292185160     -2.195429870     -0.835611953
H        4.746795160     -3.885502870     -0.993270953
H        4.901304160     -2.860724870     -2.442860953
H        2.828071160     -3.436530870      0.671623047
H        3.541546160     -1.804726870      0.817558047
Li      -0.071587422      1.344465176      0.522757216
