29
LiC10H18
C       -1.566116434     -0.557194367      1.396777092
C       -1.001357447     -0.186163268      0.242555862
C       -0.943565317      1.284057667     -0.120197346
C        0.282160028      1.822519081     -0.868102250
C        1.680352158      1.662771701     -0.215276389
C        1.814846622      0.911308010      1.121089904
C        1.872418999     -0.638302156      1.149202419
C        2.003411769     -1.414279596     -0.166497625
C        0.915577151     -1.225282516     -1.232059513
C       -0.547976146     -1.231945970     -0.757707170
H       -1.937678434      0.181416633      2.111863092
H       -1.684103434     -1.611715367      1.658600092
H       -1.108506380      1.867191395      0.799243142
H       -1.816747660      1.492625400     -0.764557654
H        0.095523799      2.896132834     -1.021766427
H        0.286505213      1.398847813     -1.881958992
H        2.071677892      2.674706988     -0.032955892
H        2.379234161      1.220873814     -0.943173491
H        1.013786307      1.245760193      1.799474887
H        2.746559604      1.282417853      1.574125469
H        0.994369844     -1.020566592      1.682185168
H        2.735252892     -0.929609859      1.768385776
H        2.041325122     -2.482305649      0.106261115
H        2.977749310     -1.198506667     -0.637144499
H        1.016652611     -2.047023224     -1.958943719
H        1.117787679     -0.317932624     -1.810522859
H       -0.779804148     -2.222906539     -0.334912757
H       -1.181168544     -1.127719733     -1.657819263
Li      -3.793164985     -0.761848920      1.092770083
