13
LiC4H8
C       -0.358956658      1.277809579     -0.554246472
C       -0.358956658      0.450107579      0.702743528
C       -0.216585495     -0.878079573      0.706057120
C       -0.128201385     -1.704182519     -0.548875800
H        0.525149342      1.058633579     -1.174733472
H       -1.243062658      1.058633579     -1.174733472
H       -0.358956658      2.353095579     -0.337105472
H       -0.358956658      0.975742579      1.661915528
H       -0.160689846     -1.398339604      1.666530053
H        0.727590959     -1.393565731     -1.170021781
H       -0.013624903     -2.772801724     -0.329068110
H       -1.030549294     -1.582023882     -1.169787368
Li       1.684025589      1.408236814      0.750292550
