14
LiC4H8O
C        2.247117982     -0.196104158      0.267249344
C        1.154924943      0.413745508     -0.189683952
O        0.001739966     -0.239710415     -0.441829751
C       -1.067793179      0.547954007     -0.922643088
C       -2.259731452     -0.355515418     -1.142952211
H        2.278357982     -1.286037158      0.267421344
H        3.177750982      0.367748842      0.267178344
H        1.136738527      1.493527802     -0.387232463
H       -1.308897220      1.340065844     -0.190914626
H       -0.774442998      1.043371947     -1.865781220
H       -2.546315980     -0.841445886     -0.200718575
H       -3.115546567      0.221245972     -1.518251558
H       -2.012611500     -1.137743055     -1.873101374
Li       3.500412589     -0.869079293     -1.485008085
