70
LiBC27N2H39
B        1.887391025     -0.900405565     -2.318200203
H        2.067367923     -1.978025070     -2.883209000
H        2.621515079     -0.054401705     -2.826350259
H        0.714997860     -0.559632149     -2.316696539
C        2.392225444     -1.081795196     -0.805381923
N        3.644522206     -1.441246667     -0.439738723
C        3.767477368     -1.507543054      0.935535999
C        2.552937540     -1.182074376      1.445378215
N        1.728449108     -0.923040387      0.362316630
C        0.338514920     -0.580886031      0.482479615
C       -0.006582605      0.770580225      0.645548424
C       -1.366267515      1.076061113      0.741044819
C       -2.330650613      0.073279224      0.679521699
C       -1.954180410     -1.258084929      0.538972876
C       -0.605992097     -1.616593243      0.445000802
C       -0.202971989     -3.071451498      0.269821338
C       -0.907242224     -3.987544433      1.273533140
C       -0.452372749     -3.527293999     -1.172143807
C        1.052914044      1.860965933      0.661626308
C        1.318988090      2.368489829     -0.761233499
C        0.699712248      3.019229372      1.595468334
C        4.709473064     -1.680036071     -1.370831573
C        5.528449734     -0.601469544     -1.733966472
C        6.586021568     -0.865403073     -2.608976817
C        6.792219868     -2.145542778     -3.113021121
C        5.933824341     -3.186094858     -2.767073151
C        4.865663195     -2.973449255     -1.892629717
C        3.920775064     -4.098840570     -1.507512678
C        3.579651913     -5.006829598     -2.688740077
C        4.491966516     -4.903467871     -0.334394386
C        5.288583902      0.801612525     -1.203409363
C        6.306413069      1.149010531     -0.111844673
C        5.295000417      1.843358042     -2.323902082
H        4.702736667     -1.776706033      1.415979177
H        2.193526604     -1.109901393      2.466758702
H       -1.677266115      2.114406717      0.861227285
H       -3.387977225      0.333797282      0.748168450
H       -2.719910877     -2.034723369      0.498673237
H        0.878680564     -3.148094045      0.460483525
H       -1.989684131     -4.036011382      1.082521060
H       -0.514512879     -5.011351372      1.189974818
H       -0.759581799     -3.644013453      2.307725531
H        0.091202085     -2.893709727     -1.886564963
H       -0.126904692     -4.570508043     -1.304312158
H       -1.526154487     -3.472151859     -1.410428199
H        1.986829660      1.411967493      1.035805202
H        0.407855558      2.829544524     -1.173230990
H        2.114907541      3.128875259     -0.752382426
H        1.613991374      1.554472991     -1.438266361
H        0.433844640      2.665831396      2.602288417
H        1.556911706      3.702043822      1.683680760
H       -0.143002089      3.608924770      1.205174576
H        7.250072898     -0.052604568     -2.908308827
H        7.621395146     -2.332035971     -3.797373408
H        6.091459665     -4.178230321     -3.192170453
H        2.976988366     -3.637324718     -1.180914938
H        4.447523566     -5.600225880     -3.014088815
H        2.789697840     -5.715019369     -2.399613358
H        3.217661453     -4.416414897     -3.542035062
H        3.798972553     -5.705388755     -0.039012958
H        5.451717411     -5.364548095     -0.614584709
H        4.668557414     -4.264705377      0.543444657
H        4.284710093      0.824617853     -0.753035386
H        7.330329640      1.127408512     -0.516023552
H        6.118518494      2.156377923      0.288299712
H        6.260229453      0.433878329      0.722585223
H        4.572206934      1.574490616     -3.106620540
H        5.021024225      2.829879477     -1.922030866
H        6.290567035      1.939323577     -2.783102561
Li      -1.580017478      0.107448008     -2.313753045
