22
LiC7H11O3
O       -2.368654122     -1.150148695      1.043876933
C       -2.107276122      0.053029305      1.043912933
C       -0.820561122      0.681781305      1.044102933
C        0.356867878     -0.123937695      1.044189933
O        1.538676878      0.652877305      1.045122933
C        2.726134878     -0.086205695      1.044290933
C        3.884132878      0.893424305      1.043126933
O        0.494629878     -1.334089695      1.043651933
C       -0.720320122      2.189980305      1.043976933
C       -3.310599122      1.023879305      1.043732933
H        2.770993878     -0.752736695      1.923394933
H        2.769390878     -0.753212695      0.165527933
H        4.849417878      0.364732305      1.042711933
H        3.837385878      1.539673305      0.154388933
H        3.838543878      1.540355305      1.931431933
H       -1.196549122      2.660006305      1.926646933
H        0.330078878      2.501314305      1.043849933
H       -1.196711122      2.659734305      0.161242933
H       -3.304077122      1.681159305      1.928125933
H       -3.304203122      1.680328305      0.158708933
H       -4.224773122      0.416503305      1.044055933
Li      -0.752985822      1.392395815      3.185249728
