20
LiC7N2H10
C       -1.791079982      1.271679943      2.055245737
N       -1.141909542      0.014525122      1.764373475
C        0.107334766      0.010023997      1.207406306
C        0.795852173      1.205040124      0.901407708
C        2.063499732      1.131941124      0.336127060
N        2.704423279      0.000344577      0.049416957
C        2.055781085     -1.126437120      0.337731623
C        0.787673142     -1.190072309      0.903112660
C       -1.799141377     -1.238045620      2.056859354
H       -1.936077129      1.877277640      1.144568255
H       -2.775829322      1.077425029      2.493978100
H       -1.210169073      1.875441865      2.772981534
H        0.358521010      2.181965065      1.097223857
H        2.592132795      2.061955077      0.101174090
H        2.578046084     -2.060375816      0.104113603
H        0.343634533     -2.163699337      1.100334239
H       -1.948057863     -1.843841354      1.146944005
H       -1.222063134     -1.844615439      2.775319491
H       -2.782598886     -1.036923684      2.495396153
Li       4.603213604     -0.006732267     -0.797215324
