19
LiC5H9SO3
C       -4.137222042     -0.437848758     -0.483895916
C       -2.996203042      0.459141242     -0.043367916
O       -1.799156042     -0.162153758     -0.417947916
C       -0.634569042      0.540905242     -0.072191916
O       -0.761994042      1.622961242      0.490920084
C        0.515956958     -0.177034758     -0.439679916
H        0.438726958     -1.127603758     -0.969510916
S        2.062653958      0.528012242     -0.209050916
C        2.872683958     -0.804221758      0.759023084
O        2.904715958      0.503729242     -1.479427916
H       -5.111208042     -0.000731758     -0.216728916
H       -4.104540042     -0.587057758     -1.572824916
H       -4.050829042     -1.425359758     -0.007556916
H       -3.078956042      1.459834242     -0.502268916
H       -3.023912042      0.629170242      1.047491084
H        2.831118958     -1.707368758      0.133445084
H        3.920766958     -0.512306758      0.914945084
H        2.350438958     -0.956437758      1.712238084
Li       1.105900908      0.404896547     -2.539053892
