19
LiC7N2H5O4
O       -4.130032308     -1.118165655      0.165768517
N       -3.230104308     -0.265124655      0.165651517
C       -1.926131308     -0.697669655      0.165737517
H       -1.872589178     -1.723867588      0.515777208
C       -0.769479308      0.125370345      0.165617517
C       -0.737331308      1.552461345      0.165503517
C        0.464813692      2.250987345      0.165411517
C        1.703506692      1.609799345      0.165427517
C        1.669402692      0.214556345      0.165534517
N        2.951903692     -0.513438655      0.165562517
O        3.974037692      0.138762345      0.165605517
O        2.929411692     -1.724126655      0.165546517
C        0.498456692     -0.522101655      0.165627517
O       -3.500903308      0.947808345      0.165494517
H       -1.687591308      2.078572345      0.165497517
H        0.434347692      3.343308345      0.165328517
H        2.651769692      2.140504345      0.165357517
H        0.561603692     -1.609333655      0.165710517
Li      -1.228661286     -0.929345722     -1.968251885
