28
LiSiC8H18
C       -0.869595478     -1.014090008      1.618063614
Si      -0.584672470     -0.731128055     -0.225575509
C       -2.262262456     -0.626968822     -1.079408615
C        0.339349520      0.883330017     -0.581041478
C        1.794531880      1.013564596     -0.114523225
C        2.726163851     -0.136550551     -0.521311824
C        2.534457954     -1.427803872      0.297116982
C        1.716881734     -2.550513097     -0.357032565
C        0.402588026     -2.129014551     -1.032125902
H       -1.389321837     -1.970735156      1.782197691
H        0.065626497     -1.035945349      2.195036690
H       -1.502812873     -0.214889849      2.033009163
H       -2.851086981      0.218873328     -0.693032594
H       -2.144679777     -0.489238439     -2.164898299
H       -2.845734665     -1.545878664     -0.917049182
H        0.304083202      0.991786642     -1.680935098
H       -0.255044590      1.723520058     -0.183176970
H        2.208005554      1.958559086     -0.502772564
H        1.824089377      1.104517446      0.985327142
H        2.613413652     -0.345112700     -1.600103297
H        3.762037720      0.211506185     -0.392599686
H        3.519198240     -1.844790597      0.557842314
H        2.074277949     -1.155402084      1.261859037
H        2.350875634     -3.068595767     -1.095627094
H        1.498581714     -3.299550739      0.421171671
H       -0.249586409     -3.009141792     -1.156965475
H        0.602489217     -1.770521728     -2.057878507
Li      -4.129676379      2.055557705      0.145954681
