25
LiC9N2H12O
C       -0.738919234     -0.000267200     -0.083401455
N        0.634142548     -0.002061041     -0.270139864
C        1.373159513     -1.225442508      0.007077498
C        2.784913372     -1.152824604     -0.553576251
O        3.460281594     -0.005839741     -0.114399449
C        2.787987452      1.143041371     -0.553310629
C        1.376405597      1.219312367      0.007303904
C       -1.486360807      1.192463225      0.015321260
C       -2.868106140      1.129187601      0.159382914
N       -3.573907307      0.003422138      0.229104443
C       -2.870974040     -1.124164531      0.159987762
C       -1.489387984     -1.191033807      0.015955672
H        1.413051368     -1.419957075      1.097456525
H        0.872313580     -2.076455254     -0.469793644
H        3.361023945     -2.026474309     -0.221686425
H        2.737970882     -1.162745430     -1.660167368
H        3.366405674      2.015073169     -0.221175970
H        2.741102712      1.153368488     -1.659901240
H        0.877888062      2.071754050     -0.469449804
H        1.416741492      1.413529555      1.097715597
H       -1.018051301      2.172660907     -0.016659667
H       -3.434533444      2.063878804      0.227360944
H       -3.439774252     -2.057380787      0.228443177
H       -1.023564022     -2.172436506     -0.015405985
Li      -5.640388514      0.006111372      0.456896430
