32
LiC10N2H18O
C        4.402345261      0.157508933     -0.632143235
N        2.960931388      0.165201269     -0.587895274
C        2.429719877      1.283377399      0.159395690
C        0.928962963      1.411746193     -0.060336132
C        2.437861009     -1.086987841     -0.082664331
C        0.950345816     -1.051388236      0.128843303
C        0.228241139      0.083752934      0.107968584
N       -1.178292136      0.112247545      0.123901670
C       -1.831467699      1.044009994      1.037183084
C       -3.314756419      1.143676637      0.717221347
O       -3.933700229     -0.114560391      0.757339356
C       -3.340702933     -0.983129290     -0.172302218
C       -1.856381913     -1.170180860      0.102446775
H        4.863198927      0.065318203      0.376743107
H        4.753183553     -0.689695177     -1.239626385
H        4.773101989      1.083871553     -1.094173005
H        2.639833623      1.177170575      1.249534123
H        2.931538514      2.203542451     -0.175107177
H        0.539823452      2.158460477      0.646059769
H        0.721894044      1.789573881     -1.074915616
H        2.687946033     -1.886616078     -0.801053139
H        2.939754863     -1.370803541      0.875239470
H        0.431430816     -1.970385236      0.400961303
H       -1.710192952      0.712547050      2.089642430
H       -1.390067542      2.043367481      0.943819878
H       -3.819098754      1.782553576      1.454602792
H       -3.436408506      1.595982441     -0.286744492
H       -3.862600813     -1.946753219     -0.100908737
H       -3.470558949     -0.586393430     -1.198168427
H       -1.419140261     -1.789637162     -0.693555258
H       -1.726346158     -1.711180756      1.063924477
Li       1.541929023     -1.506881497      2.258773865
