23
LiC9NH10O2
N       -1.414052755      1.533071028      0.299722727
C       -1.497443416      0.076464519      0.262246609
C       -0.558408070     -0.588988981      1.277965273
C        0.898926897     -0.372247090      0.976300186
C        1.495901633      0.886361778      1.160122226
C        2.837201346      1.095898470      0.846956197
C        3.617792060      0.054651641      0.340197243
C        3.037514868     -1.197961451      0.145709682
C        1.693889208     -1.403857946      0.460515717
C       -2.985113022     -0.407068179      0.519309436
O       -3.114155438     -1.618140060      0.750732084
O       -3.846462123      0.489563239      0.434189165
Li      -0.591114101      2.210074371     -1.485404564
H       -2.402438488      1.815240458      0.308786814
H       -1.233342200     -0.325566990     -0.735852035
H       -0.800583496     -0.170510205      2.268474215
H       -0.806448218     -1.658370328      1.289609455
H        0.865926323      1.698965009      1.526126446
H        3.280543172      2.083334392      0.998140151
H        4.670023409      0.219996742      0.098776585
H        3.635322551     -2.021696674     -0.251613103
H        1.241214340     -2.386907952      0.307607868
H       -0.850281716      1.875145633      1.074152390
