78
LiSi4C21H52
C       -0.620718198      7.700123456     -0.838291944
C       -0.920874531      6.430165150     -0.050896740
C       -0.245394893      5.190573142     -0.634003111
C       -0.530811043      3.908888670      0.152214106
Si       0.269595925      2.345041473     -0.548410894
C       -0.442101733      1.998462887     -2.262958986
C        2.127794824      2.639686168     -0.711452514
C       -0.039206761      0.917816661      0.650099088
Si       0.010778146     -0.837019441     -0.039077743
H        0.035290326     -1.796504206      1.112023803
C       -1.538492469     -1.225379314     -1.038823735
Si      -3.202983268     -0.862699486     -0.226725851
C       -3.144224740     -1.288507280      1.610747606
C       -3.670982060      0.954940943     -0.438221754
C       -4.530809466     -1.918120115     -1.064111786
C       -5.965717421     -1.627268747     -0.618540895
C       -7.008375007     -2.527714051     -1.277661472
C       -8.432582907     -2.214588385     -0.834785418
C        1.569496291     -1.114316645     -1.062966617
Si       3.156633442     -1.434818630     -0.089627408
C        3.237240468     -0.380126297      1.474129100
C        3.189415147     -3.251143345      0.411876308
C        4.645751635     -1.039581182     -1.187839973
C        6.007183596     -1.390889332     -0.583776807
C        7.189389412     -1.014433202     -1.474687833
C        8.536805803     -1.381336143     -0.864801660
H        0.460925836      7.901861718     -0.862395711
H       -0.963332851      7.607751850     -1.880126112
H       -1.115815866      8.577436850     -0.398893639
H       -0.597617625      6.552823856      0.996458671
H       -2.009893199      6.259698512     -0.014452176
H       -0.570664411      5.068093853     -1.682507308
H        0.844005995      5.366215609     -0.676964298
H       -0.186336965      4.026305554      1.195389883
H       -1.621715116      3.745067997      0.214241156
H       -0.271574078      2.858928489     -2.927816820
H        0.031754358      1.120862144     -2.728972170
H       -1.526083436      1.815247118     -2.217186067
H        2.549998377      2.991246464      0.243333554
H        2.663642650      1.722859809     -1.000580242
H        2.337982134      3.404424827     -1.474556239
H        0.708643308      1.006011096      1.456103466
H       -1.021608269      1.064134883      1.131396197
H       -1.497573477     -0.706253245     -2.011248402
H       -1.503190629     -2.306785394     -1.261989997
H       -2.401421697     -0.679774058      2.148782610
H       -4.122845561     -1.118271679      2.084731565
H       -2.874617728     -2.345664870      1.757754519
H       -3.842812586      1.189599296     -1.500671051
H       -4.599688316      1.178689564      0.108772551
H       -2.891807795      1.634803003     -0.062439777
H       -4.443739163     -1.777163018     -2.156364977
H       -4.289573558     -2.980479098     -0.879262606
H       -6.048374687     -1.731917775      0.478185578
H       -6.215869357     -0.574195521     -0.837640780
H       -6.925299439     -2.427469113     -2.372932013
H       -6.767507876     -3.579837261     -1.050260075
H       -8.541789006     -2.334684265      0.253825300
H       -8.702155987     -1.176278260     -1.081339118
H       -9.164477215     -2.875492281     -1.319897515
H        1.404741106     -1.992599661     -1.711343219
H        1.713281113     -0.256448147     -1.741517709
H        2.398841992     -0.616576771      2.148077506
H        4.169810341     -0.577553362      2.024202709
H        3.201352426      0.695237526      1.243257732
H        3.217523567     -3.904095854     -0.474057937
H        4.068347251     -3.481553208      1.032573981
H        2.290491389     -3.506698771      0.993497734
H        4.515616519     -1.567655031     -2.149399751
H        4.613807399      0.037744901     -1.432650876
H        6.125960420     -0.889760766      0.393585830
H        6.050457119     -2.473665763     -0.371634072
H        7.071782359     -1.510701681     -2.452751751
H        7.152156796      0.068931496     -1.678046523
H        8.682303258     -0.875505343      0.101917968
H        8.605081411     -2.464831158     -0.684005687
H        9.371779537     -1.097585692     -1.520632745
Li       0.074379014     -3.326559990      2.947643963
