26
LiC9H16
C       -2.069375858     -0.274282706      1.083406627
C       -1.495893566     -0.393375038     -0.117912246
C       -1.438657956      0.785674678     -1.069537919
C       -0.331355428      1.804770197     -0.756763055
C        1.118616203      1.326130826     -0.872657056
C        1.525426734      0.218432767      0.118385398
C        1.612193791     -1.188792750     -0.485583460
C        0.417797951     -1.638266075     -1.325248172
C       -0.922562508     -1.710643645     -0.590886373
H       -2.632703858      0.631615294      1.324135627
H       -2.210057858     -1.139874706      1.735177627
H       -1.330346471      0.429753486     -2.106843390
H       -2.401935472      1.316229376     -1.024087504
H       -0.468285670      2.670191321     -1.424991639
H       -0.494685302      2.177750560      0.268972703
H        1.322455138      1.000291545     -1.907859511
H        1.760767236      2.205562637     -0.712677413
H        2.513861709      0.454454699      0.541106996
H        0.827742108      0.220585072      0.969254744
H        2.509990826     -1.238910961     -1.124675585
H        1.777208513     -1.915924394      0.327255045
H        0.318422449     -0.980107122     -2.204091341
H        0.637654356     -2.636664935     -1.734491441
H       -0.847599971     -2.402526878      0.263480438
H       -1.659185047     -2.154767399     -1.284802187
Li      -4.275304595     -0.711282924      0.891161429
