21
LiC6H12O2
C        3.471763800      0.061020295      1.284020571
C        2.105014467      0.425730280      0.718041098
C        1.023221819     -0.571188689      1.116197176
C       -0.336441122     -0.194321067      0.584355630
O       -1.314268236     -1.128354392      0.984794128
C       -2.502222637     -0.429675861      1.296101058
C       -2.146151403      1.033528726      0.989584745
O       -0.745341124      1.037714516      1.108047646
H        3.443169708      0.023391342      2.383239583
H        3.798089539     -0.927857046      0.927819730
H        4.237746065      0.793049488      0.993082593
H        1.802655464      1.425616368      1.065386890
H        2.159592601      0.484275408     -0.382016279
H        1.263515863     -1.581053791      0.748179786
H        0.933531883     -0.633872806      2.212425550
H       -0.326932698     -0.135215037     -0.527251398
H       -3.342363448     -0.794834094      0.685816677
H       -2.747279050     -0.577616970      2.359637701
H       -2.451426477      1.308979724     -0.036838746
H       -2.571409878      1.755968726      1.696600291
Li      -0.306518785     -0.008318576     -2.913792946
