47
LiBC19H24O2
C        4.101237182     -0.280244826     -0.911718279
C        2.809125182      0.085629174     -0.186792279
C        3.030830182      1.366974174      0.631082721
O        1.794595182      0.292021174     -1.129865279
B        0.494214182      0.049063174     -0.454713279
C       -0.253161818      1.430236174     -0.003226279
C       -1.052504818      1.488925174      1.149439721
C       -1.748807818      2.646000174      1.503459721
C       -1.658525818      3.789260174      0.707351721
C       -0.863674818      3.760105174     -0.440181279
C       -0.174771818      2.594398174     -0.782622279
C       -0.502284818     -0.793696826     -1.489216279
C       -1.773697240     -1.227062459     -0.845796015
C       -2.948102999     -0.461081003     -0.930791721
C       -4.111305891     -0.831785791     -0.258169542
C       -4.136587162     -1.986074575      0.524586403
C       -2.976571508     -2.755792923      0.629931859
C       -1.815964536     -2.378760718     -0.040778244
O        0.851578182     -0.759435826      0.745664721
C        2.216618182     -1.063612826      0.704871721
C        2.412568182     -2.436598826      0.044795721
C        2.768830182     -1.105799826      2.127752721
H        4.892571182     -0.573233826     -0.202387279
H        3.927527182     -1.103201826     -1.617066279
H        4.454165182      0.589345174     -1.486897279
H        3.199766182      2.197444174     -0.070810279
H        2.135106182      1.604204174      1.222661721
H        3.898252182      1.286988174      1.305940721
H       -1.121620818      0.593547174      1.775102721
H       -2.368868818      2.658210174      2.404203721
H       -2.203030818      4.697167174      0.979421721
H       -0.781528818      4.652611174     -1.067301279
H        0.457113182      2.575977174     -1.676742279
H       -0.716210818     -0.161542826     -2.366547279
H        0.062524182     -1.676562826     -1.829286279
H       -2.931464164      0.457645139     -1.523297605
H       -5.004540882     -0.207589928     -0.339873920
H       -5.046348498     -2.277908160      1.053803895
H       -2.974640836     -3.656441378      1.249217205
H       -0.901794428     -2.966401662      0.067128620
H        2.084460182     -2.396151826     -1.003627279
H        3.460053182     -2.777069826      0.079058721
H        1.787208182     -3.168697826      0.577910721
H        2.310104182     -1.946578826      2.670296721
H        3.862960182     -1.241432826      2.134513721
H        2.517312182     -0.182176826      2.664595721
Li      -1.852795947     -1.935852271     -2.891232552
