22
LiC9NH11
C        2.032332820      0.658283027      1.522150865
C        2.167158820     -0.312911973      0.372764865
C        3.576297820     -0.647275973     -0.035251135
N        1.206494133     -0.857562084     -0.257833546
C       -0.135532585     -0.563006499      0.023421378
C       -0.681347899      0.697391224     -0.257354811
C       -2.032666911      0.945730981     -0.026235610
C       -2.856165719     -0.053231021      0.491134845
C       -2.316810996     -1.310491165      0.766408923
C       -0.971033676     -1.570876030      0.524500158
H        2.300917820      1.672533027      1.187119865
H        1.014902820      0.684051027      1.929609865
H        2.740599820      0.388339027      2.318863865
H        4.100109820     -1.155630973      0.789041865
H        3.564798820     -1.296619973     -0.917408135
H        4.139273820      0.272408027     -0.256738135
H       -0.034539178      1.473895549     -0.670184192
H       -2.444371709      1.931072708     -0.252014505
H       -3.913322933      0.143999454      0.672868364
H       -2.954056183     -2.101387099      1.165787860
H       -0.543346239     -2.555949460      0.715826121
Li       1.671839535     -2.163443623     -1.807145672
