12
LiSiC2H7Cl
C       -0.034778122     -1.437903423      1.518755934
Si       0.010661156     -0.386556779     -0.023162149
H        1.180676235      0.527451581     -0.007211513
C       -0.008866173     -1.417001594     -1.579667219
Cl      -1.691945192      0.818384051     -0.029272477
H        0.854296674     -2.084401405      1.570205765
H       -0.059552615     -0.809640714      2.419914761
H       -0.929872409     -2.076452499      1.519142387
H       -0.903756767     -2.055386361     -1.603637361
H       -0.018637133     -0.776636312     -2.472556837
H        0.881017658     -2.062846969     -1.624957805
Li       3.063997286      1.998690043      0.018463512
