6
LiCN2H2
H        0.121927699     -1.551096064      0.960421617
C        0.121919699     -1.044804064      0.000206617
H        0.121927699     -1.551096064     -0.960008383
N       -0.277826771      0.184763612     -0.000470840
N       -0.627617159      1.260665659     -0.001063631
Li      -1.680361944     -2.403413849     -0.002847756
