15
LiC4N2H6O2
N       -3.662357884     -0.004555244     -0.413586211
N       -2.626181884     -0.435127244     -0.412390211
C       -1.404348884     -0.902918244     -0.412868211
C       -0.329797703      0.086332132     -0.407476657
O        0.865106788     -0.518847250     -0.405419765
C        1.998654267      0.349383027     -0.399361034
C        3.237855263     -0.514935722     -0.397832754
O       -0.484356649      1.280746419     -0.403994352
H       -1.268712884     -1.979876244     -0.413073211
H        1.952422958      1.004586448     -1.282191059
H        1.946784859      0.999628277      0.486814030
H        3.263026080     -1.154653866     -1.290299390
H        4.137445589      0.114812407     -0.393202970
H        3.257350193     -1.159642830      0.491179604
Li      -0.715561585     -1.156794031     -2.547152200
