6
LiBH4
H       -0.362722114      0.961874336      1.087781928
B       -0.372300080     -0.044762656      0.353900260
H       -0.321012378     -1.071932428      1.056953535
H       -1.418841773     -0.055982591     -0.321833913
H        0.613375945     -0.013009943     -0.407300511
Li       2.504357725      0.047906424     -1.867635097
