32
LiSiC12H18
C        0.075614570     -1.762312555     -0.814003384
C       -0.267542861     -0.510066534     -0.479123920
C       -1.703989682     -0.154702840     -0.280110873
C       -2.622580686     -1.089597189      0.221778629
C       -3.964783263     -0.758852186      0.386158563
C       -4.420096168      0.517659581      0.056441972
C       -3.517672472      1.461311217     -0.430139657
C       -2.173238333      1.130323018     -0.588094975
C        0.740698578      0.607086143     -0.324227734
Si       2.562669583      0.194191053      0.023293071
C        3.436103199     -0.485976424     -1.503725566
C        3.386266712      1.826802588      0.480893298
C        2.708443842     -1.000086842      1.470606188
H        1.116297570     -2.049281555     -0.971703384
H       -0.679866430     -2.526675555     -1.003395384
H       -2.271658212     -2.081702552      0.510723908
H       -4.658767566     -1.500085205      0.786143106
H       -5.471669681      0.777015117      0.187651267
H       -3.860700214      2.464520977     -0.688499507
H       -1.480097695      1.880523302     -0.971196021
H        0.725489262      1.242309302     -1.229585327
H        0.413599680      1.274105967      0.492476385
H        3.320032555      0.208483972     -2.349954830
H        4.513553789     -0.589763921     -1.302752763
H        3.059015126     -1.467803161     -1.821991484
H        2.938452336      2.256252663      1.389783217
H        4.461132082      1.684148357      0.669586944
H        3.282012677      2.564963096     -0.328938635
H        2.227836096     -1.964967029      1.256699219
H        3.765807234     -1.187822000      1.711631273
H        2.227137591     -0.576991984      2.365487272
Li       0.133800212     -1.931524333     -3.063899116
