21
LiC7NH11O
C       -3.370378348     -0.456667678     -0.172034302
C       -2.023639762      0.233597204     -0.275424548
O       -1.909828703      1.428960660     -0.407447688
N       -0.953473973     -0.630245938     -0.198560526
C        0.402477900     -0.297600331     -0.251931563
C        1.405770023     -1.187437660     -0.304044721
C        2.743006487     -0.500231857     -0.412289547
C        2.409276115      0.955861807     -0.029690425
C        0.901995912      1.128376120     -0.295449889
H       -4.153381975      0.297371266     -0.297129773
H       -3.475836688     -1.229454296     -0.946925000
H       -3.479243524     -0.938506894      0.810346993
H       -1.162897800     -1.618649837     -0.132032147
H        1.273190023     -2.270806660     -0.327809721
H        3.509890577     -0.937518625      0.244824415
H        3.135566006     -0.573289538     -1.442421921
H        2.597419704      1.093340042      1.045362450
H        3.021196792      1.692717829     -0.566233886
H        0.684825033      1.566400854     -1.283147569
H        0.398903566      1.774089128      0.434270584
Li       1.964708712     -1.788604034      1.798390898
