30
LiC10NH17O
C       -0.648269585      0.112250586     -0.136224071
N        0.747486985      0.134584770      0.068486000
C        1.504571984      1.228244515     -0.531839884
C        2.916907948      1.262880605      0.030980816
O        3.574785752      0.037689053     -0.155625616
C        2.868902276     -1.001194021      0.471341622
C        1.453921509     -1.124794311     -0.073112056
C       -1.312155589     -0.983423201     -0.554798129
C       -2.813944646     -1.095542485     -0.597345082
C       -3.491473198      0.001293845      0.217600998
C       -2.863999028      1.348174100     -0.117371245
C       -1.385468798      1.372609764      0.266097267
H        1.557778929      1.108514857     -1.634270853
H        1.023799195      2.190417268     -0.319140597
H        3.509658843      2.034800764     -0.478080230
H        2.867445025      1.507594209      1.110422672
H        3.425537718     -1.930815022      0.292123886
H        2.820923212     -0.822791848      1.563398024
H        0.915723197     -1.900107607      0.490568730
H        1.499886563     -1.447168290     -1.135223385
H       -0.754519589     -1.878057201     -0.835395129
H       -3.163362654     -1.046875255     -1.644954681
H       -3.119312289     -2.088424457     -0.230137317
H       -4.574368784      0.011922008      0.025360831
H       -3.354460767     -0.203568934      1.292975368
H       -2.962571330      1.527636236     -1.201356528
H       -3.389517072      2.170012309      0.390671822
H       -1.266506512      1.497757612      1.356650111
H       -0.917206557      2.256220017     -0.190255274
Li      -1.837378566     -2.253089104      1.235771143
