16
LiC4NH9O
C        1.196936477      0.412158893      0.131881961
C        1.164007477     -1.057908107     -0.260253039
O       -0.000008523     -1.682266107      0.224347961
C       -1.164018523     -1.057896107     -0.260253039
C       -1.196932523      0.412170893      0.131881961
N        0.000005477      1.054095893     -0.385992039
H        1.273093477      0.473643893      1.238650961
H        2.090301477      0.888420893     -0.298676039
H        1.205161477     -1.134127107     -1.364288039
H        2.021226477     -1.597689107      0.164516961
H       -1.205172523     -1.134115107     -1.364288039
H       -2.021242523     -1.597669107      0.164516961
H       -2.090292523      0.888440893     -0.298675039
H       -1.273089523      0.473655893      1.238650961
H        0.000005079      0.952661027     -1.380834222
Li       0.000015709      3.086169654      0.053231401
