32
LiC13H13O5
O       -0.953200007     -2.410595114     -0.393002966
C       -1.438730007     -1.296556114     -0.373011966
C       -0.777138007     -0.019338114     -0.375715966
C       -1.550883007      1.172377886     -0.611844966
O       -2.934424007      1.024495886     -0.590772966
C       -3.460834007     -0.094482114      0.067904034
C       -3.332727007      0.062563886      1.585312034
C       -4.912230007     -0.203918114     -0.362403966
O       -2.830900007     -1.268816114     -0.363214966
O       -1.160205007      2.296979886     -0.851252966
C        0.694087507      0.064875127     -0.283418276
C        1.353112933      1.289032900     -0.004630915
C        2.732740095      1.377158232      0.112649239
C        3.540004129      0.247469071     -0.041083777
O        4.895140155      0.427158319      0.090794022
C        5.704944230     -0.691434522     -0.083167681
C        2.926102353     -0.973057204     -0.313755111
C        1.535255537     -1.056101314     -0.432012280
H       -3.856666007      0.973268886      1.906925034
H       -3.773108007     -0.811414114      2.084872034
H       -2.274696007      0.139590886      1.867453034
H       -4.940969007     -0.316425114     -1.453690966
H       -5.376050007     -1.082408114      0.105726034
H       -5.458253007      0.705022886     -0.076543966
H        0.756656051      2.190554424      0.107102529
H        3.216246290      2.332439784      0.327026974
H        5.490055275     -1.479447980      0.661628594
H        5.589250968     -1.133821003     -1.089358778
H        6.744805874     -0.361326240      0.041809606
H        3.512159065     -1.884074837     -0.441791321
H        1.081611090     -2.021595506     -0.637377086
Li       0.092893933     -0.053344926     -2.458007242
