14
LiC5H8
C       -0.673888901      1.075878521      0.018670273
C        0.657541359      1.069710708     -0.076323832
C        1.220748504     -0.325654285      0.054215568
C       -0.026007411     -1.214956127     -0.130244014
C       -1.225697995     -0.314321868      0.228755667
H       -1.297352354      1.971678870     -0.000257362
H        1.282211359      1.962622708     -0.139719832
H        2.010661474     -0.545310063     -0.679510832
H        1.675343435     -0.457239417      1.052147438
H       -0.102866921     -1.505153287     -1.188712796
H        0.011979704     -2.138846028      0.462180561
H       -1.535212651     -0.442368432      1.281203054
H       -2.113763989     -0.526203978     -0.385256066
Li       1.542667730      1.204191347      1.995514787
