60
LiC25N3H31
H       -0.000873921      0.000080462     -2.368446043
C        0.005269403      0.000025736     -1.264852131
C       -1.452490725      0.016346715     -0.824136428
C       -2.383089703     -0.799163393     -1.476842471
C       -3.712430077     -0.865191465     -1.080732135
C       -4.179196451     -0.100492353      0.012296703
N       -5.498760972     -0.153828056      0.413480916
C       -6.413746704     -1.041555455     -0.257615626
C       -5.923690376      0.603220108      1.563127523
C       -3.241502958      0.719704293      0.672498398
C       -1.913536894      0.772417830      0.254770435
C        0.723619970     -1.272681269     -0.836640847
C        0.311001442     -2.052848938      0.244765050
C        1.024765247     -3.177949471      0.651478468
C        2.196499705     -3.578391266     -0.022794631
N        2.906768420     -4.695556955      0.367650737
C        2.474625283     -5.446979730      1.518299157
C        4.123691264     -5.044439667     -0.320111874
C        2.613220542     -2.789274618     -1.118651601
C        1.887426284     -1.669728557     -1.503669220
C        0.751952326      1.256369764     -0.836622501
C        0.507101570      2.466475901     -1.494417691
C        1.117730120      3.652659772     -1.109006087
C        2.020625242      3.680245646     -0.022123486
N        2.637009635      4.851657908      0.368722691
C        2.324659720      6.083702531     -0.309589529
C        3.517279805      4.846109553      1.509058491
C        2.266493027      2.461492024      0.642920680
C        1.644913617      1.283125605      0.235823125
H       -2.052618720     -1.413200849     -2.319240935
H       -4.391414522     -1.516573898     -1.628335564
H       -6.100536502     -2.098547947     -0.183782363
H       -7.406511877     -0.949926046      0.197515408
H       -6.510380819     -0.797670566     -1.329608404
H       -5.769960610      1.686700101      1.420091711
H       -6.993406162      0.435384171      1.732337706
H       -5.381993914      0.309081616      2.480131588
H       -3.545142887      1.331599144      1.520133310
H       -1.219490827      1.426633166      0.786709207
H       -0.596625130     -1.780065244      0.787452992
H        0.655865308     -3.749022499      1.501671511
H        1.457908500     -5.854733171      1.383654669
H        3.156330778     -6.290230850      1.677421983
H        2.467675355     -4.834587514      2.437922759
H        4.883986677     -4.245426403     -0.255304632
H        4.546007824     -5.950764477      0.128587469
H        3.946732945     -5.248784713     -1.390183422
H        3.510506816     -3.050483438     -1.677094120
H        2.244790127     -1.074423162     -2.348541635
H       -0.195526398      2.483014866     -2.332241382
H        0.889944784      4.563322471     -1.660386878
H        1.253270236      6.342397006     -0.233264615
H        2.902634998      6.900107800      0.138234027
H        2.579989732      6.038361670     -1.382402930
H        4.377182091      4.170445739      1.360080409
H        3.908367984      5.857179312      1.669986902
H        3.001189045      4.528019608      2.432725451
H        2.954350323      2.422869404      1.485791579
H        1.868012405      0.357674756      0.771033219
Li      -0.014178016      0.000198979     -4.758409011
