48
LiC23NH23
C       -0.814374399     -0.051460027      1.464786120
C       -0.096589399     -0.267467027      0.087005120
C        0.617225601      1.048539973     -0.292078880
C        1.409664601      1.697325973      0.666917120
C        2.111449601      2.860193973      0.362259120
C        2.053687601      3.398494973     -0.923269880
C        1.296469601      2.750092973     -1.893783880
C        0.588019601      1.587730973     -1.582003880
C        1.020367601     -1.323079027      0.175112120
C        1.805058601     -1.554721027     -0.966506880
C        2.834918601     -2.486782027     -0.963185880
C        3.120396601     -3.212483027      0.195976120
C        2.362070601     -2.988314027      1.338125120
C        1.321815601     -2.053009027      1.327613120
C       -1.165214399     -0.677696027     -0.935582880
C       -2.146570399      0.245305973     -1.334961880
C       -3.190643399     -0.135546027     -2.174254880
C       -3.284334399     -1.448631027     -2.636255880
C       -2.321928399     -2.374354027     -2.245752880
C       -1.275315399     -1.992354027     -1.404017880
N       -1.616139399      1.169034973      1.464107120
C       -2.823124399      0.997309973      2.274896120
C       -2.668694399     -0.378449027      2.930534120
C       -1.822263399     -1.125127027      1.899523120
H       -0.024159399     -0.002874027      2.237506120
H        1.500751601      1.275413973      1.670162120
H        2.716190601      3.342283973      1.132277120
H        2.604018601      4.308406973     -1.166711880
H        1.251898601      3.147100973     -2.909406880
H        0.008032601      1.096732973     -2.363697880
H        1.594434601     -0.989313027     -1.876880880
H        3.422344601     -2.645848027     -1.868862880
H        3.931454601     -3.942082027      0.205137120
H        2.574071601     -3.542360027      2.254089120
H        0.752108601     -1.908135027      2.243554120
H       -2.091631399      1.267128973     -0.962524880
H       -3.938145399      0.602733973     -2.470026880
H       -4.102307399     -1.745552027     -3.294513880
H       -2.380684399     -3.407215027     -2.593159880
H       -0.543438399     -2.741563027     -1.101313880
H       -1.930288576      1.336576020      0.515230659
H       -2.937519399      1.804516973      3.013680120
H       -3.721566399      1.014747973      1.632752120
H       -2.116509399     -0.290069027      3.879434120
H       -3.628619399     -0.868761027      3.140968120
H       -2.451929399     -1.416357027      1.046242120
H       -1.350144399     -2.034573027      2.292222120
Li      -0.507488978      2.864498281      1.931589113
