31
LiSi2C8H20
C       -1.570109370      2.061169852      0.120855513
C       -1.944629409      0.775623982      0.109274192
Si      -0.669502965     -0.625710505      0.100746260
C       -0.955410011     -1.689147305     -1.440497882
Si       1.548013625      0.157761745      0.112606173
C        1.920284448      1.161021766      1.672187824
C        2.673349888     -1.365313083      0.102664034
C        1.927763244      1.186789849     -1.428269079
C       -0.962821666     -1.714536970      1.622749934
C       -3.404399510      0.392365230      0.102545910
H       -2.305719370      2.874460852      0.120829513
H       -0.518436370      2.362926852      0.120859513
H       -0.832925497     -1.096717145     -2.359452430
H       -0.240215786     -2.525152116     -1.473829253
H       -1.969724146     -2.117463526     -1.443180609
H        1.715436584      0.564674472      2.574204649
H        2.981459011      1.454812964      1.694318183
H        1.312388001      2.075473476      1.729968335
H        2.501036335     -1.980801323     -0.793225925
H        3.732560058     -1.063952633      0.107721936
H        2.496742898     -1.995595931      0.987361437
H        1.320122992      2.102105392     -1.473768637
H        2.989022803      1.480856944     -1.440399504
H        1.727282698      0.605529662     -2.341052288
H       -1.977118712     -2.142799961      1.613425442
H       -0.247761737     -2.551005639      1.645681491
H       -0.844810340     -1.137422522      2.551979514
H       -4.058863108      1.276719159      0.108301396
H       -3.650425609     -0.210215102     -0.786420017
H       -3.654717150     -0.224888354      0.980174834
Li      -1.365139367      2.786006842     -2.006736468
