26
LiC11H11O3
O       -0.563253386      2.004245181     -0.254904084
C       -0.512117386      0.770068181     -0.254680084
C       -1.872751386      0.043011181     -0.254793084
C       -3.014011386      0.854705181     -0.254864084
C       -4.294172386      0.305142181     -0.254961084
C       -4.462537386     -1.080112819     -0.254990084
C       -3.335376386     -1.902236819     -0.254922084
C       -2.055988386     -1.345691819     -0.254827084
C        0.634385614     -0.053411819     -0.254666084
H        0.544980614     -1.135482819     -0.254597084
C        1.971836614      0.438310181     -0.254749084
O        2.879664614     -0.632646819     -0.254769084
C        4.230960614     -0.265966819     -0.254903084
C        5.053929614     -1.540069819     -0.254938084
O        2.418608614      1.568160181     -0.254880084
H       -2.838623386      1.931802181     -0.254836084
H       -5.169394386      0.959934181     -0.255016084
H       -5.464165386     -1.516213819     -0.255065084
H       -3.452623386     -2.988655819     -0.254945084
H       -1.190081386     -2.007255819     -0.254776084
H        4.464724614      0.358640181     -1.134781084
H        4.464885614      0.358695181      0.624892916
H        4.818497614     -2.143898819      0.633432916
H        4.818337614     -2.143952819     -1.143230084
H        6.131336614     -1.317218819     -0.255042084
Li       0.557500901     -0.781857670     -2.389497314
