46
LiGeC22H22
C       -2.304680432     -1.455783315      2.795929484
C       -1.804062131     -0.218736751      2.696568940
C       -2.694141739      0.994069649      2.628368274
C       -0.326459498      0.034717283      2.603319150
Ge       0.309305432      0.457409895      0.771731773
C       -0.343059194     -0.874528302     -0.505109523
C       -1.721208791     -1.059379297     -0.700599093
C       -2.194203442     -2.003144113     -1.611220774
C       -1.294279476     -2.780271263     -2.340992074
C        0.076877041     -2.607513715     -2.160414581
C        0.546973614     -1.660111139     -1.249899974
C       -0.307321540      2.242541445      0.245165098
C       -0.084448233      3.334886099      1.097635774
C       -0.523855379      4.612923482      0.756679458
C       -1.196844737      4.818512893     -0.448601699
C       -1.421948887      3.745570440     -1.309130659
C       -0.978354569      2.467318984     -0.964224602
C        2.270179471      0.442242903      0.796332688
C        2.963779802     -0.642176058      1.354737539
C        4.357613747     -0.675257956      1.364862351
C        5.082365643      0.382628637      0.815538552
C        4.409203394      1.467364592      0.255797982
C        3.013829191      1.495023094      0.246485429
H       -3.374330432     -1.612634315      2.951268484
H       -1.641793432     -2.311040315      2.946787484
H       -2.433514031      1.713615756      3.421115020
H       -2.565890907      1.528837919      1.672090804
H       -3.752382136      0.722838759      2.736815315
H       -0.030863092      0.882134903      3.244302676
H        0.242152180     -0.844808853      2.940708058
H       -2.439916536     -0.460439338     -0.134509659
H       -3.268636899     -2.134605073     -1.750068432
H       -1.664287467     -3.521004969     -3.052076641
H        0.784671608     -3.210930294     -2.731432223
H        1.624876208     -1.530461938     -1.120180542
H        0.443876797      3.190482546      2.045401007
H       -0.343192440      5.450805406      1.432295206
H       -1.545350805      5.817572175     -0.716266948
H       -1.945823914      3.903487287     -2.253488972
H       -1.160664699      1.633383567     -1.647593336
H        2.411715658     -1.482827212      1.786273986
H        4.879760911     -1.527817534      1.802616151
H        6.173451999      0.360475181      0.823867090
H        4.972612124      2.296641686     -0.175443396
H        2.497337240      2.352275184     -0.194059251
Li      -2.494794336     -1.998435735      4.978458763
