22
LiSiC8H12
C       -1.921450963     -1.204005432      1.417874356
Si      -1.304323447     -0.119670216      0.009339091
H       -1.743352280     -0.721706409     -1.283746522
C       -1.990363572      1.622849539      0.168481472
C        0.580855201     -0.079301222      0.022357057
C        1.315427823     -1.209320562     -0.371178139
C        2.708490307     -1.213558143     -0.338495705
C        3.398287928     -0.079094544      0.090463300
C        2.688861093      1.054348082      0.482892659
C        1.293825558      1.050931553      0.446833036
H       -3.018479321     -1.284610976      1.407978719
H       -1.503152652     -2.218239498      1.340643477
H       -1.613572706     -0.784269094      2.387186172
H       -1.725236187      2.061839665      1.142273558
H       -1.600991658      2.279373740     -0.623163941
H       -3.087514189      1.612482883      0.094239380
H        0.791287480     -2.105516952     -0.717329595
H        3.258969400     -2.102206901     -0.652599980
H        4.489345383     -0.078987858      0.115715490
H        3.222935105      1.945570003      0.817355606
H        0.755961625      1.951293486      0.755919069
Li      -2.446432803     -1.685834251     -3.354551989
