48
LiSiC23H22O
C        2.055296190      0.041444285     -1.577862878
O        0.714546190      0.198623285     -1.501596878
Si      -0.214470810      0.377129285     -0.103797878
C       -1.966230810      0.288649285     -0.747439878
C       -3.050003810      0.346761285      0.142522122
C       -4.361957810      0.292635285     -0.323036878
C       -4.609510810      0.178437285     -1.691820878
C       -3.544289810      0.117338285     -2.588617878
C       -2.231591810      0.171780285     -2.118844878
C        0.109190190     -1.009420715      1.115845122
C        1.072420190     -0.891604715      2.130437122
C        1.329571190     -1.947981715      3.002954122
C        0.622595190     -3.143187715      2.874883122
C       -0.340994810     -3.278659715      1.875763122
C       -0.595027810     -2.219168715      1.005636122
C        0.182362190      2.034110285      0.674249122
C        0.784278190      3.040928285     -0.095765878
C        1.050067190      4.295795285      0.450050122
C        0.712611190      4.564378285      1.776568122
C        0.112462190      3.576126285      2.556292122
C       -0.147410810      2.320579285      2.008020122
C        2.985134393      0.110789408     -0.614524484
C        4.300063480     -0.440350490     -1.107658755
C        4.109780206     -0.483478202     -2.641082106
C        2.589327390     -0.537805236     -2.861707611
H       -2.870669810      0.432656285      1.218695122
H       -5.194111810      0.339421285      0.381318122
H       -5.636470810      0.136575285     -2.059067878
H       -3.735887810      0.026592285     -3.659223878
H       -1.396727810      0.122497285     -2.820984878
H        1.626919190      0.043504285      2.245997122
H        2.082318190     -1.837460715      3.785180122
H        0.820664190     -3.970577715      3.558623122
H       -0.898367810     -4.211640715      1.776801122
H       -1.358242810     -2.333609715      0.230769122
H        1.056904190      2.832823285     -1.134080878
H        1.523361190      5.066685285     -0.160363878
H        0.919587190      5.546482285      2.205451122
H       -0.149278810      3.783043285      3.595405122
H       -0.605719810      1.549526285      2.634828122
H        2.814992652      0.469931637      0.401064520
H        5.164134634      0.175008415     -0.815437697
H        4.477579782     -1.448662564     -0.693397092
H        4.500137845      0.449487861     -3.073581478
H        4.645658055     -1.315681812     -3.116055812
H        2.211234890     -1.567989228     -2.980913912
H        2.248686520      0.033127455     -3.738221055
Li       3.718944799      2.239076364     -0.453385042
