37
LiC16N2H15F3
C        1.552734788      0.695889486      2.427874927
N        2.082680493      0.678372829      1.092284483
C        1.275907647      1.141368318     -0.029783208
N        2.079183474      0.722868407     -1.171661603
C        1.545121133      0.792821119     -2.503890720
C        2.945422150     -0.286592884     -0.767432996
C        3.711206301     -1.174638402     -1.498736426
C        4.512179110     -2.096845121     -0.791427330
C        4.514318636     -2.124075612      0.594036446
C        3.715589451     -1.230422351      1.339507046
C        2.947604980     -0.314373900      0.646030335
C       -0.133291427      0.547659723     -0.039275375
C       -1.253064564      1.374404951     -0.021273741
C       -2.540535137      0.832461238     -0.029933615
C       -2.697839559     -0.548033633     -0.056844753
C       -1.580924952     -1.391272351     -0.075166848
C       -0.304871742     -0.845046427     -0.066403958
C       -4.067306044     -1.172044387     -0.066987281
F       -4.249294874     -1.927235336     -1.153453358
F       -4.245965536     -1.969372432      0.989509827
F       -5.036458651     -0.256825072     -0.047485976
H        0.869876866     -0.150119691      2.635065598
H        2.379093062      0.664614802      3.151863878
H        1.000377023      1.632050787      2.589904675
H        1.177626629      2.244617199     -0.007946696
H        0.992313075      1.734586732     -2.627300606
H        2.369240006      0.790079697     -3.231095560
H        0.861584630     -0.044441276     -2.742060649
H        3.693840113     -1.170456227     -2.588980947
H        5.126223787     -2.804503389     -1.349467685
H        5.130040653     -2.853077503      1.121940068
H        3.701590295     -1.269085421      2.429120905
H       -1.121253262      2.459078309     -0.000142152
H       -3.417770214      1.479267465     -0.015847650
H       -1.718708519     -2.473851113     -0.096248937
H        0.570790561     -1.499218892     -0.080632586
Li       0.965598624      4.624727456      0.039162624
