25
LiC10H11SOBr
C        4.676795501      0.740071636      1.033526894
S        4.174119501     -0.222251364     -0.429777106
C        5.059514501     -1.758190364     -0.119222106
C        2.543501501     -0.703450364     -0.202963106
C        1.667564501      0.383040636     -0.426515106
O        2.088510501      1.521399636     -0.684672106
C        0.183035501      0.150009636     -0.319950106
C       -0.645545499      1.273960636     -0.264864106
C       -2.026483499      1.138293636     -0.160637106
C       -2.578885499     -0.140758364     -0.118394106
Br      -4.458014499     -0.340992364      0.017250894
C       -1.773969499     -1.276762364     -0.184179106
C       -0.393630499     -1.122970364     -0.286354106
H        5.734677501      1.020726636      0.947410894
H        4.033095501      1.627690636      0.987224894
H        4.475350501      0.154655636      1.939007894
H        4.750497501     -2.178236364      0.846309894
H        4.800642501     -2.444585364     -0.933412106
H        6.135461501     -1.548942364     -0.126384106
H        2.334863661     -1.628025617      0.330018250
H       -0.173158499      2.256167636     -0.312019106
H       -2.674741499      2.013627636     -0.115589106
H       -2.226585499     -2.268216364     -0.164030106
H        0.238165501     -2.009387364     -0.363104106
Li       2.789130011     -1.740208890     -2.192648356
