30
LiC9N2H18
C        1.190453220     -0.508992863     -0.271708347
H        0.937581220     -0.573186863     -1.341837347
C       -0.008495780     -1.053572863      0.498673653
N       -1.285940780     -0.552673863      0.052686653
C       -2.412539780     -1.283617863      0.607965653
C       -3.630393780     -0.449856863      0.198298653
C       -3.069977780      0.986582137      0.067839653
C       -1.570600780      0.841802137      0.365525653
N        1.496794220      0.893357137      0.071407653
C        2.751195220      0.893581137      0.819787653
C        3.563238220     -0.268418863      0.241290653
C        2.473221220     -1.324914863      0.049969653
H       -0.019369780     -2.149620863      0.374310653
H        0.155127220     -0.853390863      1.585547653
H       -2.438692780     -2.315648863      0.226620653
H       -2.341206780     -1.338989863      1.718712653
H       -4.020112780     -0.800247863     -0.766825347
H       -4.443304780     -0.528263863      0.932090653
H       -3.225081780      1.370350137     -0.949332347
H       -3.548317780      1.691994137      0.760208653
H       -1.361939780      1.049426137      1.439196653
H       -0.936545780      1.522160137     -0.213579347
H        0.744820595      1.304297535      0.617299801
H        3.246605220      1.871700137      0.749442653
H        2.544907220      0.708119137      1.888111653
H        3.991517220      0.027529137     -0.730080347
H        4.386656220     -0.602631863      0.887838653
H        2.327767220     -1.878764863      0.992168653
H        2.705434220     -2.062224863     -0.730182347
Li       1.748805161      1.990900285     -1.676199432
