25
LiSiC9H14
C       -2.683957616     -1.138557441     -1.582713667
Si      -1.951938566     -0.375915757     -0.025864422
H       -2.254745694      1.085126944      0.013260084
C       -2.673527559     -1.218545502      1.494137922
C       -0.078080369     -0.555423116     -0.036596804
C        0.770190208      0.559403730     -0.017622066
C        2.157505557      0.415442740     -0.029641535
C        2.749063181     -0.850400810     -0.059074926
C        4.246036968     -1.014195844     -0.042378337
C        1.907295342     -1.969902374     -0.081565239
C        0.523406846     -1.823930519     -0.069292444
H       -3.779484070     -1.040664803     -1.595128472
H       -2.282568099     -0.653591036     -2.483899179
H       -2.438142644     -2.210056283     -1.636959250
H       -2.426290859     -2.291100507      1.491859391
H       -2.267353890     -0.779966604      2.416709325
H       -3.769079252     -1.123056550      1.518077723
H        0.342966557      1.565429653      0.004169616
H        2.793755416      1.303776199     -0.018044303
H        4.602971526     -1.230791427      0.976590349
H        4.561812846     -1.847608365     -0.685088924
H        4.751394261     -0.101687891     -0.385211734
H        2.346642524     -2.970175819     -0.111557184
H       -0.099040182     -2.724216786     -0.088746134
Li      -2.739608873      3.424589066      0.075907328
