13
LiC4H8
C       -0.639041182      1.955366485      0.180120564
C       -0.665297838      0.457834685      0.000181990
C        0.403425073     -0.288691725     -0.281882701
C        0.403425073     -1.797223725     -0.281882701
H        0.028319261      2.247758629      1.004624241
H       -0.279858416      2.461407805     -0.728493416
H       -1.637086371      2.351430520      0.406414492
H       -1.634150710     -0.044899089      0.110486198
H        1.378516073      0.214082275     -0.281882701
H       -0.110784927     -2.197446725     -1.168493701
H        1.424172073     -2.200020725     -0.281882701
H       -0.110784927     -2.197446725      0.604728299
Li       1.402404586     -0.900358579      1.647353570
