34
LiSiC12H20
C       -0.079562335      2.395111158     -1.397969151
Si       0.036815162      0.746269046     -0.494210662
H       -0.260563181      0.947397402      0.955089449
C       -1.110127471     -0.548181432     -1.277226078
C       -2.589305258     -0.602590358     -0.834425258
C       -3.226442188      0.789325571     -0.906311525
C       -3.350634984     -1.551269046     -1.767905012
C       -2.690034008     -1.133572715      0.599823157
C        1.811413165      0.118581796     -0.611977267
C        2.659484559      0.095292274      0.504292567
C        3.975193362     -0.358604984      0.403193133
C        4.467172156     -0.799905705     -0.823923214
C        3.640121693     -0.785629625     -1.947508275
C        2.327286414     -0.330742004     -1.838667308
H       -1.085636148      2.833097081     -1.337227638
H        0.638022162      3.112305572     -0.973735167
H        0.170870579      2.257358890     -2.461127963
H       -1.068677959     -0.370981027     -2.368182632
H       -0.649888704     -1.539165864     -1.119526105
H       -3.109202182      1.227304321     -1.910481701
H       -4.302855702      0.737369983     -0.681713675
H       -2.769595982      1.476971604     -0.175991804
H       -2.902272974     -2.556504878     -1.752545541
H       -4.404712776     -1.643216282     -1.462451345
H       -3.327244715     -1.184681764     -2.805814140
H       -2.148547564     -0.487794096      1.306762054
H       -3.741816413     -1.181048980      0.921964113
H       -2.266828565     -2.147375137      0.672639385
H        2.285829321      0.435269026      1.473849477
H        4.617387190     -0.369150370      1.285640191
H        5.495266027     -1.156741157     -0.906022245
H        4.020617636     -1.131051081     -2.910513058
H        1.693752811     -0.329374642     -2.731186364
Li      -0.736574630      1.269342163      3.274974073
