21
LiC8H12
C       -1.229043227     -1.423478814     -0.240897939
C        0.023566311     -1.779317623      0.079225801
C        1.008721551     -0.882474728      0.768003533
C        1.788016321     -0.019144568     -0.233461630
C        0.885938074      0.817173973     -1.140545430
C       -0.115103186      1.701782832     -0.393204886
C       -1.418557474      1.109315203      0.081719289
C       -1.887799634     -0.149627034      0.094914321
H       -1.866535775     -2.168371917     -0.728149510
H        0.365552005     -2.777665260     -0.211937894
H        0.469341431     -0.224207328      1.468587578
H        1.715197778     -1.480999021      1.361903010
H        2.466366889      0.648195525      0.323227471
H        2.428552997     -0.664815648     -0.855971982
H        1.526148215      1.466380923     -1.757263789
H        0.342044494      0.165469387     -1.841381192
H        0.383363777      2.180357538      0.471032849
H       -0.393006369      2.545082078     -1.047638135
H       -2.108949474      1.833301203      0.529912289
H       -2.932279201     -0.260836563      0.407388713
Li      -1.709012483      1.980192865     -1.980138365
