32
LiC13N2H14O2
O        0.421782494     -1.713014609     -1.517943756
C       -0.223586506     -0.771233609     -1.142775756
C       -1.632499506     -0.737173609     -0.632343756
C       -1.932727506      0.576334391     -0.283472756
C       -3.173084506      0.929635391      0.222284244
C       -4.119498506     -0.091366609      0.366906244
C       -3.818300506     -1.411543609      0.015117244
C       -2.561125506     -1.756006609     -0.494217756
C       -0.715531506      1.412989391     -0.540633756
N        0.211283494      0.556933391     -1.129398756
C        1.606218494      0.883400391     -1.267271756
C        2.350127494      0.771101391      0.087498244
H        2.212649494      1.721994391      0.622542244
N        1.818229494     -0.324628609      0.895129244
C        2.689862494     -1.502458609      0.761747244
C        3.761756494     -1.106271609     -0.266529756
C        3.824951494      0.419523391     -0.144813756
O       -0.529705506      2.574328391     -0.290743756
H       -3.392321506      1.963392391      0.493198244
H       -5.109487506      0.142449391      0.761435244
H       -4.578861506     -2.183423609      0.142137244
H       -2.311416506     -2.780973609     -0.771929756
H        2.023352494      0.177484391     -1.998647756
H        1.694222494      1.902706391     -1.666617756
H        0.895188565     -0.568426253      0.555912751
H        3.153449494     -1.756451609      1.729407244
H        2.118551494     -2.378915609      0.420608244
H        4.726789494     -1.596797609     -0.083096756
H        3.429195494     -1.396211609     -1.274047756
H        4.257201494      0.913111391     -1.027915756
H        4.421469494      0.711167391      0.733476244
Li       1.595937748      0.247338946      2.881502949
