24
LiC10NH11O
C        4.357175312     -0.145318720     -0.053737594
C        2.868325242     -0.115464121     -0.155335559
C        1.974167264     -1.146415736     -0.299796594
C        0.657441447     -0.570128097     -0.345739565
C       -0.633967117     -1.096396317     -0.477741644
C       -1.723051904     -0.230024887     -0.484687847
O       -2.948037451     -0.809059417     -0.616230764
C       -4.077970194      0.015165155     -0.629401900
C       -1.538235316      1.164429454     -0.360734628
C       -0.263074221      1.704245325     -0.228814372
C        0.825933331      0.834221469     -0.222137150
N        2.178518485      1.076086762     -0.108608623
H        4.826037229      0.425945772     -0.869499639
H        4.702470769      0.283361960      0.899499845
H        4.715200804     -1.179553157     -0.112071796
H        2.218935264     -2.205005736     -0.299886594
H       -0.816942669     -2.166645311     -0.575752515
H       -4.056431491      0.726748495     -1.472898578
H       -4.947868326     -0.642110354     -0.742408973
H       -4.180806123      0.584740700      0.310445117
H       -2.393929900      1.837113733     -0.366837275
H       -0.130083829      2.782984044     -0.133638836
H        2.602881388      1.986440327     -0.006027866
Li       1.197025751     -1.735711190      1.735597946
