24
LiC9H5SO2F6
O       -2.211627179      0.418096315     -1.559099485
S       -2.492559179     -0.309706685     -0.317415485
C       -1.167116179     -1.046354685      0.367628515
H       -1.450236179     -1.871056685      1.018129515
C        0.203636267     -0.811813115      0.052597873
C        1.197999946     -1.621148258      0.671651064
C        2.546901888     -1.453904369      0.417400365
C        2.985926267     -0.466481737     -0.472513246
C        4.431960666     -0.326269785     -0.787200069
F        4.855719167     -1.171277473     -1.749815147
F        4.746984230      0.904095802     -1.221308365
F        5.217522192     -0.579375309      0.275019170
C        2.029422952      0.343778568     -1.096524909
C        0.677334721      0.183713262     -0.848402915
C       -2.992398179      1.106415315      0.791981515
F       -2.002383179      1.993180315      0.905643515
F       -4.059959179      1.745660315      0.316579515
F       -3.290248179      0.675438315      2.017407515
O       -3.672975179     -1.169131685     -0.221491485
H        0.876085519     -2.392298644      1.374920318
H        3.278440164     -2.090021914      0.921098848
H        2.357766173      1.123046139     -1.787577026
H       -0.046122569      0.826271643     -1.347594607
Li      -1.979979473     -2.628707515     -1.021422163
