23
LiSiC7H12O2
C        1.429916794     -0.879559848     -1.839428629
Si       1.517895953      0.005499057     -0.195574000
O        0.125342447      0.983071117     -0.020955864
C       -1.134420454      0.583623575      0.007692979
C       -2.303511618      1.271630618      0.145484654
C       -3.338035376      0.274478592      0.098498917
C       -2.720336502     -0.922860827     -0.061553066
O       -1.368814415     -0.739615834     -0.118195092
C        1.595771569     -1.192416498      1.237063015
C        2.913345713      1.240584904     -0.144916296
H        1.342309102     -0.158858363     -2.665692761
H        2.338070521     -1.479319163     -2.003832863
H        0.560697651     -1.551374205     -1.871271520
H       -2.398860575      2.345049281      0.263650586
H       -4.409445578      0.436686077      0.175410164
H       -3.064220502     -1.951099827     -0.060360066
H        2.508696518     -1.804506305      1.178514237
H        1.606670718     -0.653536857      2.195846443
H        0.726710971     -1.865138653      1.226854608
H        2.824659691      1.964705452     -0.967539956
H        2.906607509      1.797814243      0.802914938
H        3.885202843      0.733175794     -0.237589878
Li      -2.246133154     -1.782525601      1.970725621
