34
LiC16N2H14S
C       -0.970208329     -1.583587752     -0.324810075
C        0.477426398     -1.878603368      0.050411961
N        1.212103370     -0.628035835      0.139897003
C        0.526717334      0.566253574      0.316767185
N       -0.714235914      0.729509914      0.499130203
C       -1.542611686     -0.461456069      0.556152662
H       -1.555026948     -0.821996384      1.603313314
C       -2.977136063     -0.154300072      0.168266704
C       -3.987697312     -1.076002048      0.463702652
C       -5.304171697     -0.835700052      0.078569580
C       -5.626837805      0.335257396     -0.608404011
C       -4.626294167      1.260065533     -0.899629076
C       -3.307976240      1.018890669     -0.511378931
S        1.676290537      1.928377577      0.254561614
C        3.025508902      0.822851543      0.034816287
C        4.372598023      1.131532361     -0.093483983
C        5.291583599      0.090533640     -0.254345262
C        4.858166296     -1.234036922     -0.281080850
C        3.503764943     -1.551626739     -0.151173667
C        2.586218561     -0.513531800      0.001433122
H       -1.025661943     -1.255784182     -1.374894941
H       -1.571712211     -2.497678221     -0.231016921
H        0.535223894     -2.419710044      1.010340328
H        0.952239896     -2.506721492     -0.718069226
H       -3.742501120     -1.990363945      1.011663980
H       -6.082895132     -1.561415442      0.319013402
H       -6.658009759      0.527545347     -0.909096638
H       -4.872813366      2.181680954     -1.429725821
H       -2.519008458      1.743732884     -0.712999411
H        4.705050977      2.170118427     -0.068080600
H        6.352586842      0.319359200     -0.356293987
H        5.584263641     -2.039002205     -0.400669646
H        3.172432090     -2.590268000     -0.161441624
Li      -1.540583615      2.621350271      0.744752968
