21
LiC6H12O2
C        2.353589389      0.053256017     -1.072050329
C        1.183221305     -0.070707132     -0.132631031
O        0.623071431      1.197100010      0.149926619
C       -0.791554213      1.108528670      0.060600758
H       -1.232712099      1.498456097      0.992517885
C       -1.277122480      1.916068716     -1.129688564
C       -1.018080499     -0.413600858     -0.052395815
H       -1.024258098     -0.838646293      0.971409684
C       -2.235988151     -0.884954951     -0.810776451
O        0.160725097     -0.825928542     -0.713604022
H        3.122142665      0.696194748     -0.624973059
H        2.782942723     -0.936610282     -1.274234043
H        2.009433120      0.501591925     -2.013458915
H        1.488585984     -0.539700665      0.827266674
H       -0.885347694      1.484732364     -2.062454521
H       -2.375138552      1.942525415     -1.180383475
H       -0.905424752      2.945794147     -1.044396679
H       -2.208571188     -0.525383898     -1.847543266
H       -2.264243116     -1.982161122     -0.827310580
H       -3.154989316     -0.520453159     -0.330427270
Li       2.145415240     -1.548490137      2.891974675
