31
LiC11H13SO5
O       -0.735812747      0.947656001      1.995205641
S       -0.739078747      1.109884001      0.539738641
C        0.759389253      0.687411001     -0.177786359
O        1.154702449      1.410101175     -1.281117894
C        1.878061660      2.567347052     -0.954336456
C        1.417298253     -0.495711999      0.221124641
O        2.641227253     -0.639611999     -0.408244359
C        3.333770253     -1.820088999     -0.090329359
C        4.639334253     -1.804808999     -0.859331359
O        1.034314253     -1.355997999      1.006346641
C       -1.972943747     -0.077664999     -0.031641359
C       -2.051214747     -1.331400999      0.577396641
C       -2.983741747     -2.252283999      0.101864641
C       -3.830233747     -1.918934999     -0.958208359
C       -3.744005747     -0.658857999     -1.552054359
C       -2.810453747      0.268261001     -1.089427359
O       -1.148701747      2.402251001     -0.036626359
H        2.798274963      2.312545300     -0.398888389
H        2.152341115      3.068901181     -1.895793195
H        1.263561524      3.251067302     -0.346228968
H        3.509034253     -1.881509999      0.996839641
H        2.725938253     -2.703328999     -0.350203359
H        5.233232253     -0.921768999     -0.582987359
H        5.230266253     -2.707949999     -0.646739359
H        4.444662253     -1.755062999     -1.939963359
H       -1.361240747     -1.557941999      1.391981641
H       -3.053723747     -3.239678999      0.563576641
H       -4.560441747     -2.644899999     -1.322935359
H       -4.408876747     -0.396889999     -2.378179359
H       -2.712116747      1.265875001     -1.521031359
Li      -0.526901794      0.241672713     -1.978014601
