36
LiGeC18H16
H       -0.001100848      0.000230939     -2.198291509
Ge      -0.009434832     -0.004198515     -0.648386171
C       -0.281892619     -1.829126887      0.007563367
C       -1.239056088     -2.106282565      0.992536112
C       -1.403923277     -3.402677629      1.483533658
C       -0.611115918     -4.439738314      0.995061103
C        0.347477739     -4.179322904      0.014809595
C        0.508474325     -2.883675564     -0.473599093
C        1.700517349      0.672321491      0.024706405
C        2.226287575      1.881437542     -0.454780654
C        3.423910832      2.389634965      0.046019927
C        4.116012860      1.692012105      1.036878215
C        3.606567729      0.489477282      1.523662841
C        2.406355387     -0.015601750      1.020391743
C       -1.457601169      1.138183044      0.009211125
C       -1.225579433      2.095114795      1.005977683
C       -2.269000177      2.881091310      1.498272295
C       -3.560184115      2.718565007      0.999210898
C       -3.807427903      1.768843370      0.007012439
C       -2.762691434      0.986654284     -0.482735443
H       -1.867392976     -1.300256458      1.381612503
H       -2.154300949     -3.602513236      2.250348670
H       -0.739437688     -5.453593367      1.377929262
H        0.969894694     -4.988759863     -0.370477532
H        1.264594244     -2.694596857     -1.241226916
H        1.694619023      2.439793002     -1.230870367
H        3.819905275      3.331283563     -0.338104717
H        5.054478513      2.087432562      1.429146195
H        4.144933305     -0.058785209      2.298633695
H        2.016271771     -0.960769837      1.408191265
H       -0.215981192      2.231736751      1.403285094
H       -2.071880457      3.622736583      2.274247297
H       -4.376515370      3.332786098      1.382992226
H       -4.816972914      1.639117125     -0.386696785
H       -2.971940017      0.245520566     -1.259723595
Li       0.011750163      0.007061163     -4.588247199
