40
LiC17N4H18
N       -0.614935683     -0.805139755      3.516776182
N       -0.172308683     -0.201022755      2.675817182
N        0.349054317      0.524342245      1.839125182
C        0.219413317      0.125389245      0.410137182
C        1.014600317     -1.147146755      0.110953182
C        1.963776317     -1.657993755      0.999722182
C        2.717001317     -2.783886755      0.662114182
C        2.537775317     -3.406224755     -0.570093818
C        1.595247317     -2.898706755     -1.465558818
C        0.837557317     -1.781668755     -1.125508818
C       -1.261783683     -0.074772755      0.062804182
C       -1.907089683     -1.243302755      0.494201182
C       -3.260065683     -1.448759755      0.238447182
C       -3.990305683     -0.494332755     -0.468862818
C       -3.355574683      0.661676245     -0.915645818
C       -2.001432683      0.874570245     -0.651957818
C        0.865438317      1.294202245     -0.376866818
H        0.625366317      1.098021245     -1.438827818
N        0.354533317      2.612809245      0.017777182
C        1.478437317      3.504953245      0.316047182
C        2.651243317      2.874942245     -0.430153818
C        2.389884317      1.387035245     -0.215503818
H        2.128021317     -1.171060755      1.962127182
H        3.449638317     -3.172897755      1.370961182
H        3.127188317     -4.285866755     -0.832772818
H        1.443824317     -3.379927755     -2.433069818
H        0.088607317     -1.399894755     -1.823079818
H       -1.338599683     -2.015172755      1.017909182
H       -3.741967683     -2.364073755      0.585224182
H       -5.049263683     -0.655894755     -0.675968818
H       -3.915377683      1.411532245     -1.476777818
H       -1.523653683      1.794683245     -0.992394818
H       -0.264367683      2.529920245      0.819553182
H        1.268495317      4.533471245     -0.014335818
H        1.703505317      3.536761245      1.398019182
H        2.591966317      3.121075245     -1.501769818
H        3.627704317      3.209170245     -0.055737818
H        2.661313317      1.108006245      0.815302182
H        2.931785317      0.725400245     -0.903976818
Li      -0.743530109      3.418156444     -1.553182271
