25
LiSiC7H16
C        1.338659317      0.086696044      1.753346314
Si       0.927759999      0.058702150     -0.087052048
C        2.517081188     -0.001623995     -1.092559883
C       -0.205273706     -1.402413753     -0.477841217
C       -1.620563894     -1.165166748      0.075717198
C       -2.266858899      0.130937415     -0.428096247
C       -1.556551641      1.413161734      0.022207832
C       -0.131806218      1.556758378     -0.539255130
H        1.950329348      0.966582784      2.004791965
H        0.429151221      0.122095134      2.371275379
H        1.906200842     -0.811257932      2.041688230
H        3.103014411     -0.900753943     -0.848861203
H        2.301708489     -0.018663142     -2.171319425
H        3.147144351      0.876663766     -0.885745439
H       -0.256061338     -1.515551423     -1.575510965
H        0.211120054     -2.345486823     -0.088065710
H       -2.272800265     -2.014954443     -0.181866516
H       -1.585947882     -1.135614472      1.179415689
H       -2.302094820      0.108895417     -1.532326628
H       -3.313338184      0.163992473     -0.087269016
H       -2.166097676      2.282844038     -0.271060565
H       -1.522306939      1.427717835      1.126217556
H        0.331255418      2.493365454     -0.188489105
H       -0.178049384      1.626665903     -1.640723566
Li       3.138516716     -2.761005909      2.667771619
