24
LiC10H10O2Br
Br       4.280739193     -0.327841695     -0.378945376
C        2.391264193     -0.034163695     -0.378997376
C        1.885530193      1.265940305     -0.379013376
C        0.513468193      1.468193305     -0.379045376
C       -0.426897807      0.395900305     -0.379063376
C       -1.821896807      0.666833305     -0.379101376
H       -2.148725807      1.706708305     -0.379114376
C       -2.836129807     -0.311541695     -0.379135376
O       -4.109608807      0.268643305     -0.379113376
C       -5.175967807     -0.639282695     -0.379020376
C       -6.462658807      0.163725305     -0.378704376
O       -2.764341807     -1.539179695     -0.379066376
C        0.140582193     -0.915303695     -0.379045376
C        1.513033193     -1.119470695     -0.379013376
H        2.569204193      2.117306305     -0.379003376
H        0.131049193      2.492429305     -0.379058376
H       -5.122368807     -1.303749695     -1.258951376
H       -5.122034807     -1.303949695      0.500730624
H       -6.506952807      0.810163305      0.509726624
H       -6.507254807      0.810381305     -1.266960376
H       -7.342179807     -0.497221695     -0.378639376
H       -0.540984807     -1.764388695     -0.379057376
H        1.911754193     -2.136177695     -0.379002376
Li      -1.293042860      1.176911382      1.754951776
