44
LiSiC21H20O
C        0.545121551      0.980831485      4.024949808
C        1.050159720      0.753394947      2.633800518
C        2.298697185      1.005856483      2.226093894
O        0.074951208      0.246503390      1.830015323
Si      -0.047829333      0.252245964      0.148798381
C       -1.805550464     -0.313689253     -0.145644721
C       -2.369683761     -0.241948372     -1.428725516
C       -3.666930530     -0.691298569     -1.667069605
C       -4.422233556     -1.220449070     -0.619979347
C       -3.877966769     -1.295036252      0.661317435
C       -2.579038556     -0.844169051      0.896012068
C        0.202328959      1.966745025     -0.566747479
C        1.439601873      2.392368493     -1.074918990
C        1.604548865      3.684230284     -1.572595738
C        0.530521102      4.573703019     -1.569249671
C       -0.707438542      4.168926413     -1.070372686
C       -0.868107621      2.875366494     -0.576161181
C        1.203314007     -0.953604116     -0.552451633
C        1.795594369     -1.911112595      0.284155951
C        2.674481651     -2.864153915     -0.229151132
C        2.973031356     -2.874397334     -1.591389277
C        2.394553335     -1.928859572     -2.437827233
C        1.518056819     -0.975751141     -1.919946408
H       -0.289918606      1.696619093      4.002499440
H        0.155476400      0.037950595      4.436773253
H        1.334944520      1.363939213      4.680671504
H        2.620326185      0.826098483      1.199278894
H        3.018735185      1.430707483      2.923596894
H       -1.792494033      0.180865526     -2.256961659
H       -4.091453238     -0.626036813     -2.670316597
H       -5.438734618     -1.573248718     -0.803189543
H       -4.468406459     -1.706121417      1.482072309
H       -2.154583391     -0.898988379      1.900793693
H        2.288231453      1.702731728     -1.088108150
H        2.573729998      3.998565181     -1.963503802
H        0.658387357      5.585091526     -1.959189762
H       -1.550642937      4.861590899     -1.069756556
H       -1.845347623      2.563711373     -0.196660114
H        1.569920576     -1.903721544      1.354016025
H        3.128666101     -3.600551532      0.435906462
H        3.661101439     -3.619787341     -1.994215723
H        2.628191540     -1.932941037     -3.503823647
H        1.078009410     -0.234808872     -2.594412795
Li       2.405388366      3.123964444      1.453899192
