31
LiC8PH16O5
C        5.221692992     -2.308407020      1.229232848
C        4.121918992     -1.304023020      1.512570848
O        2.898873992     -1.988256020      1.463932848
C        1.773813992     -1.210535020      1.727010848
O        1.940278992     -0.013091020      1.976098848
C        0.577597992     -1.933926020      1.659007848
H        0.570674992     -2.997731020      1.436751848
P       -0.892256008     -1.105283020      1.976618848
O       -1.387203008     -0.773095020      3.348868848
O       -0.943141008      0.262141980      1.061830848
C       -0.735412008      1.519714980      1.673900848
C        0.183220992      2.346346980      0.796483848
O       -1.998937008     -2.022890020      1.175709848
C       -3.355182008     -1.690585020      1.361719848
C       -4.205464008     -2.867873020      0.926512848
H        6.211149992     -1.827996020      1.256748848
H        5.200819992     -3.116304020      1.974755848
H        5.077544992     -2.762014020      0.237915848
H        4.260289992     -0.828085020      2.498351848
H        4.136783992     -0.481076020      0.777104848
H       -1.713815008      2.018774980      1.806137848
H       -0.293918008      1.387435980      2.671970848
H        1.150043992      1.829076980      0.735730848
H       -0.241183008      2.453203980     -0.213397152
H        0.330784992      3.350267980      1.225097848
H       -3.531671008     -1.440508020      2.420776848
H       -3.602948008     -0.793395020      0.764938848
H       -4.008121008     -3.111370020     -0.127344152
H       -3.958494008     -3.752111020      1.531176848
H       -5.276589008     -2.645542020      1.044133848
Li       0.113143346     -2.779387182      3.699479928
