24
LiC10H10O2Cl
Cl      -3.437342975     -1.843436127     -0.014116954
C       -2.599048975     -0.288523127     -0.014172954
C       -3.378122975      0.870069873     -0.014146954
C       -2.682885975      2.085060873     -0.014188954
C       -1.298090975      2.128116873     -0.014247954
C       -0.497489975      0.946232873     -0.014269954
C        0.920408025      1.036894873     -0.014314954
H        1.376477025      2.026667873     -0.014290954
C        1.799616025     -0.065044127     -0.014368954
O        3.137737025      0.343006873     -0.014340954
C        4.075683025     -0.697271127     -0.014506954
C        5.457609025     -0.073750127     -0.013682954
O        1.567547025     -1.272393127     -0.014435954
C       -1.215871975     -0.288719127     -0.014235954
H       -4.465538975      0.814248873     -0.014095954
H       -3.248004975      3.021784873     -0.014176954
H       -0.787936975      3.094794873     -0.014278954
H        3.933670025     -1.349784127      0.864619046
H        3.934365025     -1.348881127     -0.894436954
H        5.589829025      0.561211873     -0.901637954
H        5.589271025      0.560053873      0.875181046
H        6.239602025     -0.847729127     -0.013940954
H       -0.655033975     -1.220991127     -0.014253954
Li       0.462136650      1.611394046     -2.148322229
