27
LiC8H16O2
C        2.897465822      0.558384293      0.279565373
C        1.879918910     -0.565163815      0.455329256
C        1.688226810     -0.934692692      1.922563891
C        0.553354227     -0.158042485     -0.169453657
O       -0.368890239     -1.208425319     -0.092097468
C       -1.646324846     -0.626566331      0.063254263
H       -2.018529540     -0.274115026     -0.921082858
C       -2.602983794     -1.630034277      0.661498249
C       -1.330279908      0.594101859      0.932955674
H       -1.302691589      0.274308078      1.993496451
C       -2.267955343      1.768475839      0.764313805
O       -0.022989119      0.940689244      0.512801902
H        2.537500802      1.469325242      0.780226289
H        3.866693090      0.281397117      0.717576854
H        3.059211338      0.795030208     -0.782609093
H        2.215194447     -1.455007465     -0.103842001
H        1.342004428     -0.055047140      2.486281844
H        0.942416743     -1.733879206      2.029717094
H        2.633631730     -1.276985008      2.366671209
H        0.702113288      0.140630061     -1.227875161
H       -2.218841296     -1.985519982      1.628201425
H       -3.591970202     -1.175405276      0.814492364
H       -2.717557889     -2.493097374     -0.006995653
H       -3.288681124      1.494609238      1.068859475
H       -1.938672831      2.613882524      1.382334455
H       -2.281483799      2.091676197     -0.286201507
Li       1.022480558      0.783850769     -3.507289983
