12
LiC3NH3OF3
C       -1.758374226      2.103054888      0.033447113
N       -1.318811226      0.734943888      0.033447113
C       -0.022250012      0.635272523     -0.062282150
O        0.877519589      1.491665533     -0.151227226
C        0.420486535     -0.848837136     -0.059700990
F        1.751102876     -0.989366738     -0.157014544
F        0.060821582     -1.502830246      1.061339107
F       -0.101354364     -1.554936066     -1.080927284
H       -1.392579226      2.677842888      0.911319113
H       -1.392579226      2.677842888     -0.844424887
H       -2.861419226      2.157346888      0.033447113
Li      -2.603093215     -0.894207122      0.170296526
