14
LiC3NH9
H       -0.413478916      1.284255074      1.195150673
N       -0.411127916      1.242979074      0.175232673
C       -0.238333827     -0.144282192     -0.244444735
C        1.132456876     -0.628231987      0.211941188
C       -1.347039814     -1.078998786      0.243108119
H       -1.324610916      1.583544074     -0.121000327
H       -0.248615084     -0.145384145     -1.347874610
H        1.183610677     -0.640800158      1.313307149
H        1.337073133     -1.647454465     -0.144920885
H        1.916295195      0.045961430     -0.157405339
H       -2.334241352     -0.728648591     -0.094654967
H       -1.207419947     -2.105960648     -0.126694555
H       -1.357447073     -1.113692713      1.344862735
Li       1.115482229      2.392830153     -0.643024598
