18
LiSiC4N2H10
H        1.093977768      2.131511240     -0.228837633
C        1.036203768      1.041377240     -0.231359633
Si      -0.532428593      0.035265883     -0.409224930
C       -1.944326534      1.271188834     -0.462617694
C       -0.458517899     -0.980023975     -1.991776633
C       -0.707434382     -1.132209350      1.056055319
N        2.192043768      0.448138240     -0.232599633
N        3.171158768     -0.115415760     -0.233850633
H       -1.836462607      1.958324746     -1.314736020
H       -2.907108109      0.749075228     -0.567651024
H       -1.981701082      1.869051944      0.459915349
H        0.422911940     -1.639770652     -1.988666674
H       -1.351884386     -1.614060827     -2.098832490
H       -0.388596318     -0.327041277     -2.873862506
H       -0.784657733     -0.570385414      1.998258630
H       -1.602115807     -1.765347252      0.954806213
H        0.167455774     -1.796589821      1.129223457
Li       0.488115652      1.587165555     -2.351681197
