29
LiC10NH17
N       -0.972631884      0.010641625     -0.309665867
C       -1.782689056      1.208282666     -0.245239386
C       -3.188657240      0.713299126     -0.585574092
C       -3.177761890     -0.722800152     -0.060584135
C       -1.768830799     -1.201464742     -0.416479866
C        0.401282190      0.057131634     -0.186668432
C        1.079871908      1.206958004      0.035781619
C        2.577710490      1.277570164      0.186946688
C        3.196402118     -0.095166966      0.434723865
C        2.613665082     -1.111478582     -0.540741757
C        1.113068958     -1.272649332     -0.316214309
H       -1.737302179      1.666314088      0.763232133
H       -1.419546340      1.968311307     -0.958127593
H       -3.978430278      1.336095203     -0.145774965
H       -3.327404919      0.710364310     -1.677651253
H       -3.301202149     -0.721381266      1.033409471
H       -3.964208511     -1.356019956     -0.491819300
H       -1.747332907     -1.625323760     -1.439831038
H       -1.416941205     -1.987283356      0.268985911
H        0.535348908      2.152478004      0.040553619
H        3.034335389      1.724688739     -0.716414389
H        2.835885331      1.959139882      1.013590436
H        4.291627155     -0.047358146      0.342507296
H        2.972037242     -0.417993556      1.465712734
H        2.790673635     -0.761522588     -1.571646839
H        3.111101758     -2.087821141     -0.443492996
H        0.931274759     -1.866896809      0.597218339
H        0.665779902     -1.844192490     -1.144436530
Li       1.658383894      2.114351870     -1.948156195
