33
LiC13NH12O6
O       -1.627750310      1.727518593     -1.683571859
C       -1.902902952      0.779878612     -0.968989647
C       -1.353422952      0.468189612      0.301241353
C       -0.222505088      1.307141849      0.824493551
C        1.084753485      0.675586045      0.425479614
C        1.686569176      0.995154744     -0.803118183
C        2.858238814      0.368485507     -1.207673933
C        3.423709309     -0.594101330     -0.372643910
N        4.669942318     -1.246540498     -0.782849800
O        5.167676123     -0.912598298     -1.836314231
O        5.142222033     -2.084943597     -0.046234667
C        2.837633340     -0.955460787      0.839568662
C        1.666926121     -0.318636607      1.230211523
C       -1.788679660     -0.633500076      1.080587442
O       -2.769309519     -1.428104512      0.498055646
C       -2.849651947     -1.408449552     -0.908441297
C       -1.674926828     -2.181090601     -1.512794842
C       -4.182216412     -2.037930435     -1.265987206
O       -2.881740350     -0.098304826     -1.424034150
O       -1.410847707     -0.944578466      2.197386407
H       -0.294068794      2.317326077      0.397115720
H       -0.284546085      1.363619305      1.921211822
H        1.195481739      1.729363066     -1.445619184
H        3.345326432      0.603938538     -2.152640134
H        3.307607307     -1.726298130      1.448156953
H        1.154871404     -0.600962158      2.152651472
H       -1.673944880     -3.211122473     -1.130837739
H       -1.764889598     -2.192256539     -2.607647992
H       -0.725492795     -1.700335049     -1.240011049
H       -4.980942489     -1.442276663     -0.805805299
H       -4.313663338     -2.040875839     -2.356034528
H       -4.226982775     -3.064805363     -0.879726162
Li      -2.236350346      2.201737701      1.445487498
