48
LiSiC23H7OF15
F       -2.102044623      2.886558503     -1.334419658
C       -1.146356946      3.136348165     -0.449942964
C       -0.621039711      4.425747871     -0.430785297
F       -1.079210547      5.355045075     -1.248998585
C        0.409043193      4.729807573      0.455791058
F        0.917240696      5.943966330      0.477363724
C        0.907241387      3.753120919      1.316371747
F        1.893912412      4.041861672      2.144459095
C        0.357614150      2.476871390      1.269270952
F        0.867163979      1.547069107      2.069982047
C       -0.688305278      2.139989538      0.409276785
Si      -1.293434680      0.366887369      0.464231661
C        0.151168816     -0.692124014     -0.099851054
C        0.522236759     -0.608550144     -1.440059002
F       -0.203820285      0.154363846     -2.257091999
C        1.617681185     -1.281502839     -1.962502637
F        1.943637277     -1.180455746     -3.237559931
C        2.384379886     -2.069529501     -1.103835057
F        3.433151059     -2.714302712     -1.571658972
C        2.051072705     -2.172214711      0.243961133
F        2.787031180     -2.920226305      1.045846984
C        0.946450942     -1.475413327      0.733398311
F        0.683780367     -1.583163900      2.025276794
O       -1.693428417      0.063735756      2.045526371
C       -2.217138669     -1.104054829      2.505707570
C       -2.403043753     -2.255788382      1.848052580
C       -2.937515862     -3.310520935      2.785384598
C       -3.402571150     -2.487564666      4.009028492
C       -2.589302093     -1.183414367      3.958565749
C       -2.828804578      0.096666494     -0.583912664
C       -3.009550579     -0.947328925     -1.487225557
F       -2.049674134     -1.845054631     -1.686654726
C       -4.194918009     -1.120587054     -2.196027890
F       -4.337082230     -2.122869134     -3.043469323
C       -5.246614899     -0.232191096     -1.986915830
F       -6.376029067     -0.385768257     -2.645349260
C       -5.109746716      0.816980325     -1.079593344
F       -6.111574100      1.652575012     -0.880757563
C       -3.911103544      0.953984045     -0.390064176
F       -3.803893008      1.952115960      0.480090624
H       -2.398673753     -2.438794382      0.770616580
H       -3.755011494     -3.903852919      2.350017008
H       -2.138649966     -4.023086288      3.055318549
H       -4.468935161     -2.246414162      3.889776874
H       -3.291002309     -3.029912374      4.956567928
H       -1.666809624     -1.230721548      4.562457648
H       -3.148074467     -0.295737377      4.288449897
Li      -4.454608437     -2.241915732      0.907340671
