36
LiGe2C9H24
C       -1.594111883      2.779619701     -1.249682963
Ge       0.010429534      2.732556358     -0.112756415
C        1.612111702      2.772663988     -1.253973181
C        0.015413871      4.293412032      1.081596166
C        0.008273627      1.077535258      0.959341242
C        0.004370561     -0.204345844      0.120757966
C        0.002697486     -1.489593497      0.954179813
Ge      -0.002327047     -3.140283917     -0.124564257
C        1.599175738     -3.182759926     -1.265947064
C       -0.004133897     -4.705936548      1.063502214
C       -1.607047847     -3.175804212     -1.261656846
H       -1.609850745      1.929618752     -1.946790461
H       -2.507609041      2.738808626     -0.638851005
H       -1.621658694      3.704878649     -1.843074967
H        1.642084704      3.697798150     -1.847442152
H        2.527054604      2.727886219     -0.645587842
H        1.622296755      1.922606798     -1.951115368
H       -0.873776947      4.293769293      1.728262701
H        0.906325271      4.289907466      1.725880763
H        0.016666151      5.227930051      0.502336436
H        0.890700331      1.086525778      1.621729367
H       -0.872329942      1.090350568      1.624088462
H       -0.876284617     -0.201092076     -0.546146882
H        0.883243667     -0.204909269     -0.548501290
H        0.885071020     -1.505080870      1.616518723
H       -0.877959252     -1.501256080      1.618877817
H        2.514299217     -3.144404058     -0.657394578
H        1.625134650     -4.105621669     -1.863131588
H        1.613059624     -2.329958574     -1.959665510
H       -0.893323525     -4.705031290      1.710169852
H       -0.006936326     -5.638114352      0.480489334
H        0.886778692     -4.708893117      1.707787913
H       -1.619087876     -2.322946620     -1.955340603
H       -1.638608748     -4.098541170     -1.858764403
H       -2.520364428     -3.133481652     -0.650657742
Li      -1.707210984     -6.104244954     -3.156665041
