16
LiHgC4H10
C        0.391380332      3.117268427      0.435311889
C       -0.551408532      1.912201363      0.475964621
Hg       0.432064620      0.022847133      0.483507399
C        1.415537772     -1.866507096      0.491050176
C        0.472748908     -3.071574161      0.531702909
H        1.065662253      3.140867687      1.304771615
H        1.025277207      3.112783259     -0.464314636
H       -0.164784281      4.068755776      0.432903163
H       -1.193015516      1.961662268      1.369795128
H       -1.233160684      1.933744655     -0.388783185
H        2.057144756     -1.915968001     -0.402780331
H        2.097289924     -1.888050388      1.355797982
H       -0.161147967     -3.067088993      1.431329434
H       -0.201533013     -3.095173420     -0.337756818
H        1.028913521     -4.023061509      0.534111635
Li      -2.712565603      1.980493685     -2.265289410
