15
LiC3NH7O3
O       -0.587032733      2.941238627      0.008256735
O       -0.914716513      1.562147143      0.007720514
C        0.060815734      0.743657774      0.007503829
C       -0.481698903     -0.713027630      0.006920390
C        0.732197864     -1.606382668      0.006696831
N        0.310518335     -3.065527498      0.006122976
H       -0.268078165     -3.267792425      0.830712337
H       -0.267934988     -3.267185111     -0.818715544
H        1.108742764     -3.710547048      0.005954771
O        1.269559082      0.899652238      0.007666189
H       -1.109676131     -0.873640505      0.898394806
H       -1.109521345     -0.872983947     -0.884781066
H        1.356502303     -1.444128182     -0.878537299
H        1.356348600     -1.444780146      0.892158575
Li      -2.258171508      4.004646753     -0.193087137
