19
LiC8N2H8
N        3.071612890     -0.418303714      1.157716516
C        1.748749309     -0.033089487      1.087334589
C        1.429603924      1.350189646      1.017211889
C        0.121175379      1.794477914      0.944797711
C       -0.900959234      0.839935695      0.941903561
C       -0.615914116     -0.544642400      1.010738375
C       -1.882041093     -1.225027080      0.986477880
C       -2.852059757     -0.259527959      0.906560674
N       -2.271828926      0.982364054      0.879396216
C        0.721266217     -0.975311872      1.083661294
H        3.807922466      0.267365506      1.160419432
H        3.320022876     -1.392184274      1.210128487
H        2.244730957      2.076855904      1.021041420
H       -0.096364017      2.862731355      0.891806116
H       -2.051675826     -2.297620468      1.013774003
H       -3.934282657     -0.366097194      0.895920461
H       -2.766813561      1.859460709      0.822821659
H        0.955511839     -2.040562440      1.137101958
Li      -1.411683824     -1.967910838     -1.092208426
