16
LiC4NH6O4
O        3.149974215     -0.994495596     -0.344715731
N        2.289226215     -0.099850596     -0.344896731
C        0.963907215     -0.492853596     -0.345037731
H        0.807945215     -1.564087596     -0.345091731
C       -0.130829785      0.407821404     -0.345100731
O       -1.320556785     -0.333457596     -0.344986731
C       -2.492396785      0.434937404     -0.344905731
C       -3.670807785     -0.518866596     -0.344793731
O       -0.201284785      1.620612404     -0.344923731
O        2.601015215      1.089236404     -0.344664731
H       -2.519632785      1.100908404      0.535020269
H       -2.519772785      1.100880404     -1.224846731
H       -3.638002785     -1.165851596     -1.233250731
H       -3.637841785     -1.165835596      0.543669269
H       -4.623293785      0.031742404     -0.344712731
Li       0.806659525     -1.184385925      1.797648714
