45
LiC22H22
C        5.783804627      0.017462078     -0.794057538
C        4.312175253      0.015432118     -0.472703176
C        3.606302481      1.210081141     -0.301838989
C        2.250328890      1.209997492      0.018210882
C        1.545365424      0.011246706      0.176361416
C        2.252639553     -1.185465049      0.012278210
C        3.608493903     -1.181470283     -0.307779090
C        0.081831081      0.008211640      0.614075440
C       -0.693148857      1.252312810      0.200901558
C       -0.681017824      1.720658463     -1.119668363
C       -1.442927844      2.821649464     -1.492262004
C       -2.247669666      3.496454584     -0.563557844
C       -3.080923370      4.677774833     -0.986805726
C       -2.254113468      3.030764373      0.751765670
C       -1.488051507      1.925831201      1.127534157
C       -0.692530690     -1.231328773      0.186046188
C       -1.494373864     -1.910307944      1.102730150
C       -2.260494121     -3.010596539      0.713973765
C       -2.247373366     -3.466041426     -0.604944478
C       -3.081040355     -4.641964599     -1.042192885
C       -1.435804058     -2.785810627     -1.523584714
C       -0.673608262     -1.689405096     -1.137988234
H        6.386113257      0.011332054      0.127819909
H        6.065315447     -0.869147992     -1.378315714
H        6.065388419      0.911599099     -1.366655174
H        4.125919681      2.163405983     -0.424978813
H        1.731603396      2.161921457      0.144427888
H        1.735566300     -2.138933522      0.133683352
H        4.129938808     -2.133178178     -0.435680252
H        0.089388507      0.001625498      1.716678228
H       -0.051836234      1.224655414     -1.862242090
H       -1.413310798      3.170181165     -2.527665084
H       -3.883694896      4.365784043     -1.671993209
H       -3.547511003      5.167622511     -0.122187042
H       -2.471160463      5.424156096     -1.516108111
H       -2.865957363      3.540343210      1.499544535
H       -1.512255768      1.581582025      2.164517568
H       -1.524065684     -1.573902360      2.142140651
H       -2.877785201     -3.524630692      1.454191977
H       -3.883295646     -4.321614391     -1.724150993
H       -2.471469718     -5.382579862     -1.579701474
H       -3.548475368     -5.141376050     -0.183518568
H       -1.400674160     -3.126481796     -2.561422396
H       -0.038603496     -1.189444170     -1.872915654
Li       0.105769292     -0.012650022      4.106579456
