27
LiC13NH11O
O       -0.194622735     -1.777611118     -0.280494590
C       -0.450133735     -0.573233118     -0.156277590
C       -1.900582735     -0.148451118     -0.112591590
C       -2.841773735     -1.133848118      0.204901410
C       -4.197329735     -0.824372118      0.269685410
C       -4.632102735      0.473985882      0.001358410
C       -3.703634735      1.457158882     -0.337683590
C       -2.345667735      1.148216882     -0.394076590
C        0.509465265      0.464069882     -0.014035590
H        0.212450265      1.488358882      0.180222410
N        1.874793265      0.267807882     -0.028340590
C        2.456313265     -0.960675118     -0.221084590
C        3.833766265     -1.102726118     -0.232567590
C        4.677326265     -0.012697118     -0.047094590
C        4.073874265      1.231981882      0.151913410
C        2.703098265      1.347653882      0.157607410
H       -2.476741735     -2.144297118      0.392769410
H       -4.920673735     -1.600307118      0.525999410
H       -5.694989735      0.717092882      0.046941410
H       -4.038610735      2.469746882     -0.568574590
H       -1.636734735      1.922599882     -0.690425590
H        1.749441265     -1.777257118     -0.352383590
H        4.233700265     -2.104541118     -0.390356590
H        5.760743265     -0.122328118     -0.054839590
H        4.665683265      2.134178882      0.306456410
H        2.197014265      2.299362882      0.307456410
Li       0.942574238      0.768614202      2.179983183
