51
LiSiC20NH27O
C        2.876376491      1.086789330      0.664854076
Si       2.100567491     -0.437215670      1.438017076
O        0.457448491     -0.647465670      1.112742076
C       -0.377479509     -0.378644670      0.023065076
C       -1.797042509     -0.827578670      0.392797076
C       -2.035776509     -1.551234670      1.561986076
C       -3.324678509     -1.990959670      1.868350076
C       -4.386374509     -1.714791670      1.010222076
C       -4.154362509     -0.987638670     -0.157645924
C       -2.869827509     -0.544503670     -0.460968924
C       -0.398553509      1.133441330     -0.244928924
C       -0.461373509      1.985802330      0.864936076
C       -0.504378509      3.366198330      0.704651076
C       -0.489343509      3.924785330     -0.575501924
C       -0.442068509      3.087997330     -1.685893924
C       -0.401805509      1.700551330     -1.521471924
C        0.069566491     -1.195576670     -1.208641924
H       -0.648477509     -0.994429670     -2.030798924
N        1.439509491     -0.898000670     -1.590886924
C        1.862086491     -1.973083670     -2.478306924
C        1.270709491     -3.232557670     -1.822408924
C        0.105049491     -2.711417670     -0.953135924
C        3.088839491     -1.980877670      1.035652076
C        2.092165491     -0.218222670      3.304671076
H        2.345574491      2.005950330      0.951965076
H        3.914093491      1.164994330      1.027606076
H        2.902005491      1.025280330     -0.430358924
H       -1.200010509     -1.760197670      2.228832076
H       -3.498359509     -2.552699670      2.787836076
H       -5.393280509     -2.058486670      1.252118076
H       -4.980047509     -0.756881670     -0.832708924
H       -2.702894509      0.044868330     -1.365740924
H       -0.472656509      1.543367330      1.863157076
H       -0.550311509      4.012985330      1.582438076
H       -0.519122509      5.007625330     -0.704387924
H       -0.436347509      3.511407330     -2.691580924
H       -0.376268509      1.066214330     -2.410092924
H        2.039002558     -0.860067346     -0.770060002
H        1.450071491     -1.854800670     -3.500183924
H        2.958629491     -2.006246670     -2.563722924
H        0.940308491     -3.955736670     -2.579260924
H        2.022859491     -3.733491670     -1.198824924
H        0.301338491     -2.889479670      0.112879076
H       -0.858025509     -3.178357670     -1.195417924
H        4.044614491     -1.967191670      1.582456076
H        2.539657491     -2.884324670      1.343838076
H        3.298592491     -2.046551670     -0.039841924
H        1.530167491      0.683959330      3.589994076
H        1.616364491     -1.080463670      3.795818076
H        3.114361491     -0.122016670      3.701088076
Li       1.654687732      0.989897043     -2.434558395
