18
LiC5NH11
C       -0.457644274     -0.000143748     -1.843489681
N       -0.405729147     -0.000030145     -0.405294388
C        0.322017853      1.147971855      0.100656612
C        1.792723853      0.774781855     -0.125353388
C        1.792682853     -0.774814145     -0.125555388
C        0.322040853     -1.147945145      0.100811612
H        0.052917889      0.889120030     -2.240881456
H        0.052910410     -0.889475971     -2.240740144
H       -1.501095613     -0.000167579     -2.232262630
H        0.017490853      2.069085855     -0.418754388
H        0.125175853      1.295961855      1.188066612
H        2.139482853      1.158641855     -1.093841388
H        2.443314853      1.199863855      0.650065612
H        2.139014853     -1.158411145     -1.094300388
H        2.443546853     -1.200167145      0.649486612
H        0.125381853     -1.295680145      1.188292612
H        0.017407853     -2.069168145     -0.418343388
Li      -2.438788643     -0.000002301      0.029343486
