16
LiC7H4O3Cl
O       -1.942481946     -1.899736057     -0.002148329
C       -1.901694980     -0.684115785     -0.001883340
O       -2.871828629      0.173352754     -0.002111009
O       -4.179005890     -0.334445456     -0.002531769
C       -0.568503077      0.041664935     -0.001728886
C        0.588541584     -0.743084967     -0.001659793
C        1.833311088     -0.125016474     -0.001514796
Cl       3.285354219     -1.106526447     -0.001423221
C        1.962148499      1.261856316     -0.001438379
C        0.800943070      2.037715270     -0.001509428
C       -0.455524587      1.437410108     -0.001654081
H        0.473562912     -1.827356299     -0.001718056
H        2.953859929      1.714775084     -0.001324681
H        0.886456727      3.126490680     -0.001449730
H       -1.371519314      2.027580977     -0.001708507
Li      -5.464898059      1.185607916     -0.002807255
