14
LiC5H8
C        1.922420923     -0.001795679     -0.315864366
C        0.659698209     -0.006866911     -0.727293780
C       -0.302292626     -1.097891691     -1.156185314
C       -1.071143235     -0.014036458     -1.955251510
C       -0.310791603      1.076321580     -1.156900111
H        2.479877923     -0.937410679     -0.399361366
H        2.479877923      0.933819321     -0.399360366
H        0.114550611     -1.951960235     -1.707944826
H       -0.892392857     -1.477322216     -0.307317993
H       -0.781179299     -0.013251093     -3.014078546
H       -2.166042559     -0.018292376     -1.882153852
H       -0.903841426      1.451686252     -0.308280492
H        0.099364670      1.933258877     -1.709222585
Li       1.959914048      0.017368607      1.940742821
