39
LiC17NH19O
O        0.383770090      0.516242643      2.010282564
C        0.223478090      0.129002643      0.653827564
C        1.031597090     -1.131910357      0.343848564
C        1.981997090     -1.614138357      1.245370564
C        2.749933090     -2.736389357      0.928026564
C        2.579268090     -3.381872357     -0.294162436
C        1.630508090     -2.903434357     -1.199619436
C        0.859759090     -1.788950357     -0.880280436
C       -1.263128910     -0.126982357      0.376795564
C       -1.857274910     -1.245974357      0.978392564
C       -3.210844910     -1.519210357      0.805957564
C       -3.992731910     -0.681129357      0.009875564
C       -3.409973910      0.425736643     -0.601509436
C       -2.053671910      0.706488643     -0.419883436
C        0.803571090      1.288989643     -0.182647436
H        0.581182090      1.051339643     -1.240356436
N        0.215604090      2.586138643      0.175191564
C        1.284661090      3.581417643      0.320856564
C        2.498355090      2.946034643     -0.359525436
C        2.318460090      1.469324643     -0.020006436
H       -0.220268910     -0.008629357      2.548176564
H        2.118461090     -1.098913357      2.196715564
H        3.487478090     -3.106151357      1.642533564
H        3.180090090     -4.258320357     -0.541856436
H        1.485327090     -3.405866357     -2.157334436
H        0.104527090     -1.428451357     -1.583182436
H       -1.241117910     -1.928945357      1.571286564
H       -3.654038910     -2.395770357      1.281087564
H       -5.052766910     -0.894553357     -0.135927436
H       -4.014934910      1.084597643     -1.226691436
H       -1.615102910      1.596068643     -0.874141436
H       -0.299603910      2.490259643      1.045867564
H        1.004325090      4.541703643     -0.138864436
H        1.514869090      3.777365643      1.383308564
H        2.439491090      3.091405643     -1.449586436
H        3.451228090      3.366817643     -0.011823436
H        2.590322090      1.287557643      1.032151564
H        2.902078090      0.786552643     -0.651700436
Li      -1.087583576      3.214254298     -1.317930544
