16
LiC7H4OF3
O       -3.006501489     -1.581626384     -0.111239336
C       -2.162822843     -0.663787982     -0.116380088
C       -2.507709431      0.746388222     -0.098404484
C       -1.561530025      1.756870402     -0.108906453
C       -0.186736180      1.486017757     -0.138556550
C        0.192293922      0.135375602     -0.155796982
C        1.653801879     -0.185402477     -0.114552734
F        2.151882832     -0.190961093      1.138380119
F        1.952316041     -1.387094940     -0.629879492
F        2.400433744      0.709748816     -0.789203654
C       -0.729872285     -0.899441282     -0.146363998
H       -3.576017190      0.979773193     -0.078082920
H       -1.897253491      2.799680813     -0.098842300
H        0.559746216      2.279544241     -0.160152716
H       -0.399644692     -1.940097553     -0.167503715
Li      -3.529540642     -1.991814268     -1.988007022
