30
LiBC10NH12O5
C       -4.166856951     -0.203478010     -0.062688390
N       -3.091429951     -0.463728010      0.880116610
C       -2.356509951     -1.692775010      0.635911610
C       -1.383742951     -1.468837010     -0.505850390
O       -1.665324951     -1.481443010     -1.663991390
O       -0.141658951     -1.099443010     -0.070346390
B        0.380370049      0.164385990     -0.183483390
O       -0.428780951      1.266071990     -0.356301390
C       -1.730015951      1.459008990     -0.017386390
O       -2.403654951      2.222729990     -0.635715390
C       -2.278271951      0.694474990      1.203606610
C        1.895990049      0.395730990     -0.081282390
O        2.735201204     -0.671803652      0.051924005
C        3.995967470     -0.220018078      0.087856522
C        5.075631993     -1.232511403      0.226518291
C        4.009968622      1.146950251     -0.019616358
C        2.647428110      1.543537995     -0.129047596
H       -4.867472951     -1.050202010     -0.045829390
H       -4.702781951      0.703598990      0.248547610
H       -3.822955951     -0.051906010     -1.102481390
H       -1.809094951     -1.991688010      1.541272610
H       -3.068872951     -2.479420010      0.356887610
H       -2.909967951      1.427211990      1.727909610
H       -1.466340951      0.389796990      1.880866610
H        5.059171943     -1.934607860     -0.619422286
H        6.052782817     -0.737442634      0.256498461
H        4.944451530     -1.815901270      1.149139178
H        4.893480801      1.778718473     -0.022627737
H        2.250333298      2.549626518     -0.239078220
Li       1.615425672     -0.386715518     -2.179641295
