29
LiC11H14SO2
C        5.191533223     -0.835784899      0.464147242
O        4.539219223      0.404282101      0.441892242
C        3.191916223      0.418700101      0.326103242
C        2.584924223      1.683006101      0.285803242
C        1.209211223      1.789569101      0.168894242
C        0.401947223      0.645485101      0.095701242
C        1.015183223     -0.605921899      0.124883242
C        2.400185223     -0.731965899      0.241121242
C       -1.083139777      0.834855101     -0.023570758
O       -1.542377777      1.959894101     -0.274348758
C       -1.930504777     -0.284396899      0.177486242
S       -3.568854777      0.142290101     -0.070023758
C       -4.403192777     -1.431819899      0.186279242
C       -4.152427777      1.048665101      1.402187242
H        4.872022223     -1.447383899      1.324792242
H        5.010646223     -1.404930899     -0.463155758
H        6.263692223     -0.627397899      0.552484242
H        3.227475223      2.562147101      0.344227242
H        0.715109223      2.761299101      0.125366242
H        0.408756223     -1.508807899      0.033212242
H        2.846490223     -1.725071899      0.255221242
H       -1.702126777     -1.190983899      0.733567242
H       -4.096215777     -1.863400899      1.147449242
H       -5.486170777     -1.263627899      0.163965242
H       -4.102507777     -2.088734899     -0.637763758
H       -3.547355777      1.963936101      1.392011242
H       -5.219398777      1.284995101      1.296170242
H       -3.947279777      0.452617101      2.300050242
Li      -2.301099540     -1.324145061     -1.791176320
