16
LiC7H8
C       -2.346350672     -0.068408096     -0.334195901
C       -0.853161006     -0.026798706     -0.132231571
C       -0.145349698     -1.179343919      0.227035642
C        1.230727738     -1.137133907      0.445270273
C        1.925222610      0.063508629      0.305081698
C        1.233079244      1.218489177     -0.056042149
C       -0.143032123      1.170796354     -0.273093737
H       -2.873276059      0.130159424      0.612075134
H       -2.671667764      0.689576115     -1.059421272
H       -2.672491203     -1.053558372     -0.694013724
H       -0.682870460     -2.124587429      0.334773445
H        1.764528836     -2.047761471      0.723012495
H        3.015780831      0.055411089      0.273802567
H        1.768715519      2.162284817     -0.172964814
H       -0.678708122      2.079014845     -0.559805306
Li       2.989344581     -0.355374149     -1.640742201
