18
LiC7N3H7
C       -2.519953075      1.190333883     -0.181765099
N       -1.459008987      0.213753102     -0.181879008
N       -1.733549360     -1.100641534     -0.182237241
N       -0.650597361     -1.774256059     -0.182097188
C        0.406931860     -0.896350936     -0.181755716
C        1.794948771     -1.115149378     -0.181552958
C        2.611649816      0.000004521     -0.181203215
C        2.074513242      1.312113318     -0.181051781
C        0.711329105      1.547716091     -0.181245816
C       -0.112148630      0.409545104     -0.181608593
H       -2.463980055      1.822113884      0.715563170
H       -2.463031140      1.823271260     -1.078214532
H       -3.465492568      0.637829354     -0.182619923
H        2.193782356     -2.129416030     -0.181667889
H        3.695053464     -0.124240995     -0.181032732
H        2.760102858      2.160770466     -0.180765392
H        0.304188556      2.559064628     -0.181112665
Li      -0.501313966     -3.847889416     -0.182508307
