27
LiSnSiC6H18
C       -2.349935110      1.732673034     -0.926367591
Si      -2.347566885     -0.111756269     -0.525227119
H       -2.276929662     -0.274173602      0.959206395
C       -3.950865547     -0.886881119     -1.139261115
C       -0.844389154     -0.931134090     -1.289496291
Sn       1.045162292      0.019749340     -0.781979131
C        0.962187459      0.739285300      1.259618821
C        2.653574799     -1.416272589     -0.983424616
C        1.378114388      1.678874066     -2.134669685
H       -3.262988166      2.217653051     -0.550841618
H       -1.489251803      2.249512013     -0.474296788
H       -2.305646916      1.891141103     -2.015246369
H       -4.044910045     -0.766921013     -2.229291326
H       -3.979768774     -1.962905376     -0.913350001
H       -4.826133093     -0.415926303     -0.667529734
H       -0.797795262     -1.987496416     -0.978282629
H       -0.939557272     -0.923037149     -2.388352691
H        0.770588577     -0.090438369      1.954059387
H        1.912507269      1.214120097      1.540771878
H        0.158065888      1.478335769      1.382903808
H        2.686846627     -1.817166647     -2.005880642
H        3.622814565     -0.947095891     -0.764383325
H        2.510964997     -2.254732037     -0.287750999
H        0.587803451      2.434724262     -2.028887708
H        2.344851140      2.159073743     -1.928568071
H        1.383883050      1.329646660     -3.176826739
Li      -2.164001746     -0.533830625      3.332374218
