39
LiSi3C9H26
C        0.030619042      2.644231959     -0.491284815
Si       0.024055083      0.773230345     -0.715743961
H        0.006766715      0.138303724      0.642259105
C       -1.535088441      0.256521359     -1.641798633
Si      -3.065213911     -0.006450766     -0.568116016
C       -3.282602381      1.425791224      0.640064924
C       -4.596778705     -0.130014385     -1.659305324
C       -2.859805007     -1.608804617      0.400969796
C        1.597245574      0.241495256     -1.608977548
Si       3.101972379     -0.036187805     -0.503545174
C        2.860923060     -1.636485566      0.460714936
C        4.654762565     -0.174530174     -1.562482602
C        3.307863633      1.393883044      0.709213379
H       -0.863913103      2.985097214      0.049248737
H        0.916704767      2.976601135      0.068108760
H        0.043396287      3.139351117     -1.474697769
H       -1.744946324      1.021267448     -2.409639211
H       -1.342514471     -0.686219601     -2.182153817
H       -3.376537572      2.387567712      0.112650243
H       -4.192695643      1.283137419      1.242664286
H       -2.430156564      1.495643506      1.333781035
H       -4.493123666     -0.944486603     -2.392094194
H       -5.496773129     -0.328431112     -1.057409933
H       -4.760927510      0.805371142     -2.215608707
H       -1.963609616     -1.576346819      1.038314828
H       -3.730481059     -1.789931264      1.049384467
H       -2.762467682     -2.468461822     -0.279654120
H        1.406968555     -0.699377829     -2.153386167
H        1.830488128      1.004133796     -2.372153310
H        2.769657002     -2.495178361     -0.221962189
H        3.716023044     -1.825940506      1.127225363
H        1.951902303     -1.595427797      1.079118251
H        4.839562563      0.759244261     -2.115002529
H        5.540008439     -0.381683485     -0.941945123
H        4.558572587     -0.987930339     -2.297476827
H        2.441858007      1.471891967      1.385030998
H        4.203789348      1.242503871      1.330622564
H        3.421986893      2.354721975      0.184076890
Li      -0.020794101     -0.873885322      2.807164123
