24
LiSiC7H14O
C        1.288506907     -1.784181405      0.162124001
C        1.460037734     -0.488659604     -0.153728581
C        2.804889304      0.086435009     -0.332721102
C        3.023241072      1.365022691     -0.645997235
O        0.462550900      0.401584575     -0.336781942
Si      -1.217277532      0.206237179     -0.236267201
C       -1.695539230     -0.304544791      1.501448220
C       -1.876971747      1.908706421     -0.624519674
C       -1.792164865     -1.030779384     -1.520254734
H        0.303762907     -2.250736405      0.161543001
H        2.161968907     -2.434107405      0.162674001
H        3.637792726     -0.606682728     -0.191971610
H        2.184051798      2.048716841     -0.784314349
H        4.035835962      1.751118251     -0.769522194
H       -1.278575288      0.405488753      2.231035972
H       -2.791352740     -0.294705143      1.607010285
H       -1.338941731     -1.309559537      1.765656959
H       -1.558020816      2.228258664     -1.627366438
H       -2.976459160      1.923013664     -0.592934879
H       -1.502904433      2.644170244      0.102603672
H       -1.438824594     -2.051556415     -1.319785299
H       -2.892375735     -1.052983435     -1.553272730
H       -1.429294550     -0.736196825     -2.516171349
Li       1.177611331     -2.995563445     -1.739008484
