31
LiSiC12H16O
C        3.009985913     -0.593384366     -1.802264021
Si       2.595814029      0.312570425     -0.216779994
O        0.938328963      0.682004324     -0.205123487
C       -0.092691339     -0.174897485     -0.235960107
C       -0.122417644     -1.526913875     -0.283489466
C       -1.549613438     -2.014067836     -0.301573937
C       -2.349352770     -0.734363682     -0.257323011
C       -3.721648399     -0.516114185     -0.250715624
C       -4.191812805      0.800400805     -0.204905525
C       -3.303103155      1.879487710     -0.166390133
C       -1.923587051      1.666932280     -0.172802461
C       -1.465762393      0.353503464     -0.218505904
C        3.007624588     -0.702053634      1.302106668
C        3.428825228      1.979862216     -0.157776301
H        2.727667108      0.017666894     -2.672403280
H        4.091673399     -0.788817524     -1.859143536
H        2.485230686     -1.555782066     -1.880748162
H        0.740707356     -2.190801875     -0.283590466
H       -1.780243416     -2.599720757     -1.207667247
H       -1.781523968     -2.661705950      0.560962427
H       -4.422941115     -1.352527913     -0.280571893
H       -5.266611992      0.988721914     -0.199111111
H       -3.694889190      2.897368540     -0.130987657
H       -1.215367935      2.496196253     -0.143180381
H        4.089235972     -0.901034863      1.346830194
H        2.723944158     -0.153327513      2.212412366
H        2.482813184     -1.667559971      1.312313047
H        3.141430631      2.588734267     -1.027193327
H        3.140073235      2.526461194      0.751651475
H        4.523767075      1.872607492     -0.160695727
Li      -0.134369459     -2.336156702      1.823411623
