42
LiSiC12H26O2
C       -0.031009251      2.826439662     -0.242336867
C       -0.187598561      2.282247137      0.973307056
O        0.749046650      1.623773077      1.673884257
Si       2.446203914      1.689150315      1.537560417
C        2.986966296      3.479149043      1.593602142
C        3.006944822      0.709662587      3.055615116
C        2.538540937     -0.744456880      2.911455926
C        4.536306914      0.755346635      3.170456477
C        2.376778300      1.323978726      4.312825528
C        2.980099795      0.855591113     -0.054210410
O       -1.375953573      2.337192650      1.602775883
C       -1.390912263      2.228307385      3.015304681
C       -2.804720682      2.489848753      3.490239872
C       -2.935906012      2.379312072      5.005364969
C       -4.356223107      2.639224663      5.493483009
H       -0.752904251      3.632096662     -0.138270867
H        1.033833749      3.045315662     -0.233726867
H        2.734892450      3.943660643      2.558058614
H        4.073814025      3.562754464      1.443482889
H        2.486346620      4.052835744      0.800537606
H        2.999507636     -1.236061241      2.040412232
H        2.816309633     -1.325810780      3.807152035
H        1.445098751     -0.801841248      2.795552480
H        4.906903832      1.785095814      3.295021179
H        4.869012626      0.176244978      4.048593185
H        5.029940554      0.321155325      2.286414034
H        1.278410331      1.316048829      4.250738422
H        2.673038702      0.749420776      5.206808440
H        2.700829326      2.365260923      4.467089315
H        2.857337826      1.513973249     -0.925741627
H        4.041791912      0.569987642     -0.000505589
H        2.388472202     -0.055134983     -0.228688630
H       -1.057402806      1.223472004      3.322354488
H       -0.688856732      2.957621591      3.458573491
H       -3.113814669      3.492326218      3.152901858
H       -3.478796810      1.771070173      2.996700173
H       -2.610762163      1.375585466      5.326763401
H       -2.243090185      3.091480841      5.484517285
H       -4.691047200      3.647804159      5.208617489
H       -5.061104402      1.919312060      5.051564105
H       -4.430076529      2.555445357      6.586503477
Li      -0.611675903      1.307662471     -1.807645489
