17
LiC8NH6Cl
Cl       3.191631879     -0.368743282     -0.355099603
C        1.496541690     -0.032477478     -0.121329084
C        1.098731164      1.307873161      0.060671214
C       -0.236458553      1.620628862      0.249592236
C       -1.162254770      0.569248778      0.252767420
C       -0.768562997     -0.781447689      0.070206796
C       -1.963687866     -1.575942939      0.130907992
C       -3.001609205     -0.707803716      0.341127902
N       -2.525579548      0.579089194      0.414452363
C        0.592966966     -1.079188952     -0.120318873
H        1.857640318      2.089651463      0.049986645
H       -0.550142854      2.655956948      0.390915828
H       -2.039698913     -2.654447792      0.031050493
H       -4.074589205     -0.882105716      0.341245902
H       -3.089088368      1.403212100      0.563962342
H        0.939641744     -2.102428883     -0.264363784
Li      -1.656162990     -1.829375327     -2.090634147
