32
LiC13NH17
N        1.700593001      0.238771758     -0.024862448
C        2.207271240     -1.118693163     -0.082092699
C        3.655689545     -1.157702902     -0.559853128
C        4.539826059     -0.220778985      0.257422959
C        3.961926820      1.190806793      0.216460646
C        2.522994971      1.186709044      0.714577359
C        0.337666831      0.426183935      0.044621958
C       -0.629840733     -0.515884526      0.015984379
C       -2.067964733     -0.218204526      0.013010379
C       -2.977832733     -1.216621526      0.399775379
C       -4.347995733     -0.973509526      0.436270379
C       -4.849470733      0.278722474      0.083683379
C       -3.961605733      1.277801474     -0.316900621
C       -2.592784733      1.031294474     -0.361516621
H        2.118648080     -1.607184613      0.912677468
H        1.575246709     -1.688489871     -0.777233922
H        4.021949369     -2.193558310     -0.508778071
H        3.685032731     -0.852283849     -1.618463852
H        4.576313262     -0.569140999      1.304526543
H        5.572580781     -0.232857680     -0.120259555
H        4.557228311      1.881396282      0.831726707
H        3.980860862      1.567174534     -0.819155237
H        2.072370813      2.184406827      0.607313635
H        2.512675013      0.941327916      1.797829333
H        0.054090187      1.481097773      0.127945775
H       -0.364242733     -1.574533526      0.035559379
H       -2.594607733     -2.198757526      0.686164379
H       -5.029143733     -1.768688526      0.744576379
H       -5.922721733      0.471817474      0.109758379
H       -4.340793733      2.257107474     -0.614809621
H       -1.921754733      1.814822474     -0.718006621
Li      -1.094036054     -1.027371941     -2.132725077
