25
LiC13H10O
C        0.267022832     -0.206184143     -1.456920307
C        0.912678507     -0.191198928     -2.697604474
C        0.205254347     -0.053042194     -3.886917049
C       -1.185397198      0.074419871     -3.848456385
C       -1.849774595      0.062501860     -2.629492595
C       -1.123965465     -0.077169984     -1.443493864
O       -1.855352839     -0.078697104     -0.292744530
C       -1.234016331     -0.209807828      0.913864261
C       -2.067554022     -0.199974891      2.035478427
C       -1.519326441     -0.328045430      3.304516071
C       -0.137610077     -0.466276544      3.457452561
C        0.677922199     -0.474136917      2.331021939
C        0.150368402     -0.346780876      1.041890277
C        1.045023157     -0.356677698     -0.172984134
H        2.000703972     -0.291468618     -2.718713213
H        0.734016839     -0.044563963     -4.840408386
H       -1.754498662      0.183590555     -4.772714710
H       -2.933393251      0.159465296     -2.560614049
H       -3.140584347     -0.090249961      1.877548334
H       -2.172368270     -0.320043137      4.178312672
H        0.300263385     -0.567341522      4.450860879
H        1.759793959     -0.581823305      2.441729378
H        1.623096678     -1.295656312     -0.198829425
H        1.786657590      0.455750216     -0.092650053
Li       3.393706797      2.216201965      0.081426036
