26
LiSiC12H12
Si       0.045168060      1.220640446     -0.623490520
H        0.081059290      2.060508420      0.606651762
H       -0.032099498      2.132101087     -1.799580870
C        1.609847723      0.178247666     -0.659126446
C        1.688199216     -0.963830595     -1.472099723
C        2.851237243     -1.730176415     -1.522897202
C        3.958825923     -1.367245232     -0.755978494
C        3.898298386     -0.238798347      0.060395475
C        2.731979921      0.524755216      0.107454457
C       -1.468536434      0.105376455     -0.654448994
C       -2.606877841      0.445138139     -1.399859555
C       -3.735803141     -0.374039151     -1.401651105
C       -3.741840792     -1.552247060     -0.656457209
C       -2.617252297     -1.909089804      0.088256073
C       -1.491740961     -1.087053040      0.086483554
H        0.823287266     -1.264190570     -2.070790405
H        2.893520628     -2.614647978     -2.160862218
H        4.869430472     -1.967858065     -0.791158095
H        4.760564170      0.044911469      0.666321230
H        2.695920813      1.403098165      0.757349977
H       -2.613240171      1.362583601     -1.994338812
H       -4.611372158     -0.094525912     -1.990202105
H       -4.623042117     -2.196177463     -0.659689717
H       -2.616835555     -2.832202746      0.670440766
H       -0.612753684     -1.382596444      0.666790874
Li       0.138632167      3.407734895      2.579914590
