9
LiCNH5O
C        0.867630051      0.658264213     -0.442804225
N        2.246515024      0.367305970     -0.103690233
O        2.606261024      1.165458970      1.002388767
H        0.622949302      0.129582556     -1.374759870
H        0.668543821      1.736908731     -0.572779416
H        0.209993330      0.278975274      0.351207756
H        2.846227024      0.695520970     -0.860772233
H        2.890805024      0.524823970      1.663257767
Li       2.439834058     -1.671546737      0.254008513
