20
LiC6N3H8O2
N        0.988752378      1.389736150      0.602092892
C        1.171372188     -0.006754539      0.245010932
C        0.253509379     -0.496331654     -0.893911577
C       -1.204371387     -0.314811591     -0.625815541
C       -2.023797816      0.697703303     -1.076711073
N       -3.255976297      0.473652249     -0.501774159
C       -3.132435162     -0.646941748      0.260429765
N       -1.925333254     -1.140831809      0.209377073
C        2.645671428     -0.269974242     -0.256172415
O        3.309230666      0.753328355     -0.518771428
O        2.939165135     -1.467282097     -0.392109188
H        1.773109378      1.872967150      0.150660892
H        0.117372378      1.763808150      0.228378892
H        0.992397069     -0.669914220      1.110090293
H        0.524003113      0.062796395     -1.806133639
H        0.487550874     -1.556555076     -1.061087804
H       -1.832058488      1.529401950     -1.747754834
H       -4.086719938      1.034735928     -0.618426743
H       -3.968056025     -1.053634233      0.829651935
Li       0.928771193      1.556444747      2.673529954
