57
LiSi4C15H36O
C       -1.884606953      2.078912905     -2.303708598
Si      -1.157574540      2.091622323     -0.559569417
C        0.236120653      3.365038081     -0.483530105
C       -2.505074290      2.596319687      0.673177019
Si      -0.541185993     -0.083274370      0.101966651
O        0.781074251     -0.771042254     -0.759212610
C        2.090060884     -0.466392055     -0.600070543
C        2.543025851      0.635672051      0.020582098
C        4.008577473      0.917514597      0.229155425
C        4.863094192     -0.327839464     -0.001208597
C        4.441398350     -1.034740747     -1.287071145
C        2.996597620     -1.516148994     -1.181906496
Si      -0.097683658     -0.181819588      2.416327617
C       -1.762777613     -0.408187617      3.291826028
C        1.010704025     -1.676855532      2.731990211
C        0.721030717      1.370300740      3.124476057
Si      -2.202244567     -1.627643693     -0.503080783
C       -2.063983817     -1.892912209     -2.366583629
C       -1.841174549     -3.270887448      0.360403738
C       -3.938826234     -1.030634331     -0.052127042
H       -1.158599940      1.685664926     -3.031083262
H       -2.786580036      1.449660629     -2.349639401
H       -2.166035756      3.096903201     -2.615509600
H       -0.152774005      4.358793512     -0.756205161
H        0.662144017      3.433056280      0.529119442
H        1.049392192      3.109493873     -1.178264279
H       -3.322964474      1.860292969      0.700881925
H       -2.094856527      2.685863055      1.691291326
H       -2.936252096      3.571574390      0.397703318
H        1.821158851      1.367945051      0.392232098
H        4.337359342      1.724749120     -0.450398453
H        4.170137203      1.304225209      1.248630472
H        5.928879590     -0.057889858     -0.034170994
H        4.733088689     -1.021456052      0.847397225
H        4.529680009     -0.328383892     -2.129527075
H        5.106891651     -1.881460192     -1.508938332
H        2.926325056     -2.418346205     -0.548321261
H        2.592222771     -1.803724022     -2.164722580
H       -2.265522962     -1.332661581      2.968739925
H       -1.620306507     -0.463618661      4.382459860
H       -2.438844986      0.435542074      3.083114770
H        1.986874850     -1.530944677      2.244168843
H        1.180796675     -1.823513950      3.810043329
H        0.560241769     -2.594667164      2.326119194
H        0.146690438      2.279033028      2.886280723
H        0.784293841      1.292429494      4.221415253
H        1.741442242      1.495338042      2.733337769
H       -1.025637313     -2.153220917     -2.620204827
H       -2.722336308     -2.709510648     -2.701054931
H       -2.330532338     -0.983628289     -2.924787985
H       -1.944574082     -3.192923335      1.453097385
H       -2.528403122     -4.056278030      0.008734323
H       -0.812015919     -3.591709658      0.137160817
H       -4.209720285     -0.128114540     -0.621405689
H       -4.681879880     -1.809146635     -0.285554906
H       -4.021175987     -0.796045123      1.019938733
Li       2.771286635      2.291656020     -1.495881918
