9
LiC3N2H3
N       -0.209107104      1.330705950      0.328402058
C       -0.117078699      0.882407992     -0.952372627
C       -0.195315942     -0.509384175     -0.955946043
N       -0.337374643     -0.951094213      0.322543554
C       -0.337374643      0.191610787      1.026644554
H       -0.000954717      1.566813912     -1.798226769
H       -0.156382707     -1.198153874     -1.805325802
H       -0.437310781      0.194423292      2.119242061
Li      -0.510235181     -2.907672689      1.003837108
