38
LiSiC11H24O
C       -2.904029324     -0.236582772     -2.190738504
C       -1.711270846     -0.675406394     -1.789590169
O       -0.669699724      0.143561048     -1.530065040
Si       0.532807499     -0.117659371     -0.360298244
C        1.830092471      1.218094370     -0.703874795
C        1.877789603      1.568293113     -2.197524986
C        1.670669731      2.490967930      0.134716530
C       -0.304078614      0.000283809      1.335575328
C       -1.303712738      1.165248258      1.374347635
C       -1.017850285     -1.307079662      1.708163791
C        1.259569480     -1.847792667     -0.608661253
C        1.844506761     -2.043688084     -2.010725893
C        2.298570069     -2.164487923      0.473882755
H       -3.069904324      0.821274228     -2.399582504
H       -3.651787324     -0.966788772     -2.495280504
H       -1.512600257     -1.750554477     -1.672351351
H        2.793603261      0.751811398     -0.425582094
H        0.921105748      2.005726436     -2.517922647
H        2.675802612      2.300523059     -2.398741319
H        2.058773680      0.689086932     -2.831712236
H        1.612590319      2.281654054      1.213410946
H        2.521302503      3.171490776     -0.028826432
H        0.758862078      3.036981357     -0.153063455
H        0.489844002      0.187631800      2.082136439
H       -2.092261192      1.019538381      0.619740477
H       -1.790258360      1.226696756      2.360805287
H       -0.828201590      2.135137030      1.175420268
H       -0.331790048     -2.164860443      1.764089750
H       -1.514304562     -1.213156773      2.687110617
H       -1.801768224     -1.550559936      0.972346443
H        0.417586004     -2.553044221     -0.484562913
H        2.159483843     -3.087642505     -2.167427221
H        1.122162332     -1.784113801     -2.799548074
H        2.734792748     -1.410352308     -2.153740297
H        1.891604621     -2.055145705      1.490860040
H        2.673092141     -3.195570820      0.374261203
H        3.170367854     -1.495347402      0.394045381
Li      -2.985544454     -0.287852260     -4.445683231
