20
LiC8NH9O
O       -2.045180971      1.571443096      0.630190328
C       -2.104186971      0.337820096      0.630171328
C       -3.472062971     -0.324841904      0.630192328
C       -0.994988971     -0.551957904      0.630157328
H       -1.139183971     -1.627971904      0.630141328
N        0.325736029     -0.153929904      0.630174328
C        0.706290029      1.165183096      0.630193328
C        2.044630029      1.519901096      0.630208328
C        3.050060029      0.558771096      0.630203328
C        2.650184029     -0.780209904      0.630183328
C        1.313668029     -1.107697904      0.630169328
H       -4.026228971      0.020304096     -0.253993672
H       -3.431768971     -1.421286904      0.630008328
H       -4.026062971      0.019997096      1.514605328
H       -0.122690971      1.870920096      0.630195328
H        2.281286029      2.584077096      0.630224328
H        4.103544029      0.834984096      0.630214328
H        3.377969029     -1.591616904      0.630177328
H        0.962444029     -2.137831904      0.630154328
Li      -0.421841841     -1.011754919     -1.503885331
