11
LiC3N2H3O2
O       -2.319659675     -0.642535003     -0.332688072
C       -1.167255233     -0.242899145     -0.263105681
C       -0.663233344      1.205821477     -0.210790967
N        0.768017544      1.180920489     -0.133328217
C        1.164479544     -0.072846511     -0.133328217
O        2.269957726     -0.606724362     -0.082319005
N       -0.027509096     -0.956512626     -0.213371721
H       -1.060446586      1.730059637     -1.105695456
H       -1.156167749      1.699840682      0.653162602
H        0.029150980     -1.965484226     -0.227630031
Li       2.000655072      2.852347125     -0.037522539
