20
LiC5N2H12
N        2.501982998     -0.387388146      0.211222506
C        1.428091568      0.474656085      0.661684159
C        0.200135378      0.244157707     -0.209885491
H        0.510354382      0.411883908     -1.252648151
N       -0.261305777     -1.151141205     -0.069192621
C       -1.493730573     -1.108502358      0.715858405
C       -2.183262774      0.196612133      0.307512467
C       -0.992335093      1.154498248      0.188009558
H        3.291255998     -0.352909146      0.851774506
H        2.145743998     -1.343396146      0.228274506
H        1.122814609      0.314979573      1.718842213
H        1.732381006      1.531443448      0.575121726
H       -0.468513645     -1.533198788     -0.987798753
H       -2.097180139     -2.010565738      0.544448596
H       -1.245919281     -1.081196271      1.790808602
H       -2.669876333      0.062759692     -0.672057614
H       -2.947677033      0.537964833      1.019495501
H       -0.790068408      1.626152728      1.163387310
H       -1.161175480      1.962490369     -0.536193320
Li       1.155933432     -2.327177166      0.895490458
