31
LiSiC9H20
C       -3.312736732      0.014252867     -0.030875414
C       -2.675331445      0.881217086      0.759497221
C       -1.696345261      0.524438390      1.832261675
Si       0.099302004      0.741596578      1.232840136
C        1.257662183      0.473039748      2.703031520
C        2.741956067      0.580950344      2.341650041
C        0.454260116     -0.528630778     -0.118663114
C        0.406157482     -1.981573646      0.361298024
C        0.318775023      2.481203106      0.528842622
C        0.085799865      3.603215480      1.544690657
H       -4.139498732      0.394359867     -0.633156414
H       -3.355993732     -1.035123133      0.276674586
H       -2.834850099      1.953405829      0.589707916
H       -1.841779123      1.153509825      2.725822830
H       -1.825814584     -0.523873068      2.147479661
H        1.000291613      1.202343429      3.489572368
H        1.040662636     -0.518229842      3.136214930
H        3.393436407      0.410873399      3.211318551
H        3.021764595     -0.156152076      1.572920043
H        2.984941503      1.576709914      1.939907304
H       -0.279171434     -0.367863188     -0.926713367
H        1.441172625     -0.303092247     -0.557324063
H        0.609119752     -2.692258106     -0.453110089
H        1.147688841     -2.168777450      1.153424829
H       -0.582360087     -2.234289020      0.775359962
H        1.333062362      2.557912528      0.101913386
H       -0.371209581      2.586661942     -0.325653567
H       -0.926370257      3.553790611      1.975753507
H        0.798022248      3.540473223      2.381872670
H        0.199331432      4.599367679      1.092533986
Li      -5.324961263     -0.462385548      0.873457079
