25
LiC10NH13
C       -1.534291109     -0.507504435     -1.337962755
C       -1.981239109      0.284274565     -0.128392755
C       -3.144536109      1.215123565     -0.336241755
N       -1.438134616      0.238425028      1.020662057
C       -0.291634142     -0.629834717      1.226793955
C        0.984289370     -0.090040755      0.608044620
C        1.227951252      1.287790139      0.572269257
C        2.408365181      1.784188996      0.023251798
C        3.363958447      0.911381990     -0.497979199
C        3.129073190     -0.462114142     -0.467477237
C        1.945749827     -0.956900420      0.080355604
H       -2.294136109     -0.491763435     -2.128946755
H       -0.604464109     -0.072827435     -1.738857755
H       -1.312039109     -1.553128435     -1.081584755
H       -4.041458109      0.646706565     -0.627820755
H       -3.344829109      1.771191565      0.586075245
H       -2.928323109      1.918191565     -1.155629755
H       -0.139715501     -0.729565136      2.313088287
H       -0.466374616     -1.650522510      0.841931652
H        0.475627596      1.968924994      0.973826467
H        2.584067500      2.860988382      0.002528104
H        4.287090225      1.301550632     -0.928993893
H        3.866940234     -1.153485984     -0.877880424
H        1.762511556     -2.034292618      0.092291672
Li      -2.161025785      1.433599295      2.560541218
