21
LiC8NH11
N       -3.345256980     -0.039961149      0.236664927
C       -1.941799266      0.022490081     -0.134506267
C       -1.060040961      0.039800538      1.115400015
C        0.407887380      0.042002498      0.775038807
C        1.097516011      1.242057833      0.569092042
C        2.441746853      1.242307939      0.200113755
C        3.120020120      0.036287107      0.028730254
C        2.444372215     -1.166993063      0.229379539
C        1.100203802     -1.161296922      0.597507946
H       -3.628948980      0.821959851      0.700114927
Li      -4.495143556     -0.198275079     -1.488136094
H       -1.693563237     -0.876001253     -0.721955687
H       -1.667876519      0.890955145     -0.768125323
H       -1.305396750      0.932868084      1.714046128
H       -1.318002818     -0.837717350      1.726359511
H        0.572226975      2.190823999      0.706210109
H        2.962628965      2.189284188      0.048577495
H        4.173169357      0.034031687     -0.256704492
H        2.967679588     -2.116101117      0.101398830
H        0.575822260     -2.106954980      0.756923628
H       -3.468408942     -0.834635086      0.831078023
