42
LiC19NH21
C       -0.572417870     -0.150275212     -0.542247720
N       -1.914807670     -0.165613714     -0.922329317
C       -2.516293508     -1.405292102     -1.385499131
C       -3.063965821     -2.254760797     -0.233692033
C       -4.052841527     -1.434604683      0.597532628
C       -3.423789612     -0.110378015      1.033211708
C       -2.874676642      0.647330861     -0.177410215
C       -0.025373703      1.211388630     -0.265023186
C       -0.191933500      2.237769590     -1.203204721
C        0.337506396      3.503734575     -0.964664257
C        1.028249374      3.760407385      0.220340649
C        1.182404423      2.746931259      1.166304223
C        0.657322287      1.478988280      0.925625166
C        0.206308137     -1.261893014     -0.480280042
C        1.671397137     -1.328834014     -0.331780042
C        2.230017137     -2.424026014      0.348745958
C        3.606853137     -2.549686014      0.513166958
C        4.465403137     -1.583784014     -0.010054042
C        3.929331137     -0.502603014     -0.710059042
C        2.553149137     -0.378547014     -0.876580042
H       -3.353511070     -1.132079761     -2.051933944
H       -1.783900876     -1.953880173     -1.992070120
H       -3.543506014     -3.161761335     -0.632168681
H       -2.230935552     -2.581706452      0.409416939
H       -4.948538869     -1.221495399     -0.012790881
H       -4.394872941     -2.010008527      1.470534607
H       -4.156250878      0.515083313      1.565917541
H       -2.591329035     -0.304041523      1.731734575
H       -2.403247652      1.588428962      0.129237717
H       -3.703528260      0.901656879     -0.861037706
H       -0.737602986      2.025315342     -2.124938095
H        0.212660847      4.293339084     -1.707452912
H        1.443669246      4.751931062      0.407342056
H        1.715572033      2.944794957      2.097383458
H        0.783900472      0.677716675      1.656276807
H       -0.280441863     -2.234818014     -0.569854042
H        1.562797137     -3.184279014      0.761827958
H        4.011727137     -3.408191014      1.051999958
H        5.544925137     -1.678581014      0.115923958
H        4.592127137      0.249264986     -1.142135042
H        2.154176137      0.461054986     -1.446952042
Li       0.830074202     -1.839580008     -2.571031733
