29
LiC10NH17
C        3.2328840000     -0.0347400000      0.4052070000                 
C        2.5868990000     -1.1520280000     -0.4061970000                 
C        1.1052730000     -1.2773140000     -0.0637600000                 
C        0.4017820000      0.0629210000     -0.0390240000                 
C        1.0920560000      1.2264140000      0.0042980000                 
C        2.5965860000      1.3045800000      0.0447570000                 
N       -0.9772360000      0.0111690000     -0.0626970000                 
C       -1.7829780000      1.2133090000     -0.0807740000                 
C       -3.2080100000      0.6914150000     -0.2664990000                 
C       -3.1591810000     -0.6755100000      0.4170540000                 
C       -1.7768970000     -1.2002890000      0.0236530000                 
H        3.0795580000     -0.2365370000      1.4791090000                 
H        4.3192420000     -0.0044970000      0.2342720000                 
H        2.6929400000     -0.9229780000     -1.4799080000                 
H        3.0913640000     -2.1139610000     -0.2319930000                 
H        0.6037040000     -1.9367880000     -0.7891580000                 
H        0.9868750000     -1.7624200000      0.9217300000                 
H        0.5475320000      2.1719330000      0.0090700000                 
H        2.9091930000      2.0743460000      0.7688210000                 
H        2.9901000000      1.6429780000     -0.9325430000                 
H       -1.6699620000      1.7830370000      0.8634220000                 
H       -1.4703000000      1.8848600000     -0.8986840000                 
H       -3.9671010000      1.3651390000      0.1517310000                 
H       -3.4205800000      0.5648530000     -1.3392000000                 
H       -3.2080590000     -0.5486220000      1.5095610000                 
H       -3.9720710000     -1.3489110000      0.1151120000                 
H       -1.8242490000     -1.7381710000     -0.9437180000                 
H       -1.3780130000     -1.9049920000      0.7689630000                 
Li       1.5280452101      1.7473975953      2.1576584265
