31
LiSiC9H20
C        3.458015833     -0.253343365      0.245624612
C        2.679896407     -0.640313946     -0.768004289
C        1.427510854     -1.449418904     -0.643705607
Si      -0.119929816     -0.338642446     -0.716087292
C       -0.193665309      0.665329333      0.874761297
C        0.037827369      0.828805736     -2.188437261
C       -1.675927086     -1.434047929     -0.892941133
C       -1.635268146     -2.556808470      0.151524556
C       -2.930879567     -0.579766734     -0.671082091
C       -1.723466485     -2.048445229     -2.297391541
H        4.427280833      0.200069635      0.031545612
H        3.329611833     -0.728253365      1.223025612
H        2.939522985     -0.307597891     -1.780270270
H        1.363417765     -2.196320824     -1.452267033
H        1.411174460     -1.993944500      0.314427057
H        0.772256293      1.166667360      1.040170597
H       -0.974489673      1.438842952      0.827021372
H       -0.396856849      0.026603794      1.747815525
H        0.229573760      0.279234529     -3.122454646
H       -0.875397105      1.427140629     -2.326916984
H        0.873824461      1.526483319     -2.028235720
H       -1.567333047     -2.161134654      1.177629921
H       -2.552766584     -3.167770575      0.093850388
H       -0.778816895     -3.230379452     -0.007708186
H       -2.986610939      0.260213708     -1.382001035
H       -3.839760947     -1.190483407     -0.810998671
H       -2.964499209     -0.163267303      0.347505555
H       -0.826144892     -2.650325193     -2.513747757
H       -2.597598791     -2.715319406     -2.394797431
H       -1.807306977     -1.275571549     -3.076853040
Li       5.085866759     -1.786931659      0.549363492
