29
LiSiC13H14
C        0.219304735      2.570042583      1.402504922
Si       0.135367731      1.100661809      0.233517693
H       -0.027329503      1.592467821     -1.166080243
C        1.695191727      0.056603082      0.397935984
C        1.714981575     -1.265555097     -0.075117346
C        2.860389716     -2.051870068      0.031881561
C        4.012619686     -1.528140420      0.618902836
C        4.012476753     -0.219668702      1.098505308
C        2.862286126      0.562624993      0.988078596
C       -1.357614497      0.021390191      0.624042011
C       -2.563905950      0.166154156     -0.076579686
C       -3.683260749     -0.599754519      0.250321406
C       -3.611778316     -1.528485997      1.287607551
C       -2.419747042     -1.690354009      1.993623086
C       -1.304714939     -0.922147811      1.662179756
H       -0.720200311      3.139618430      1.358891638
H        0.362908826      2.227288342      2.438051531
H        1.042674613      3.251261434      1.141982846
H        0.814406652     -1.692759804     -0.525934458
H        2.854507720     -3.077609296     -0.340809453
H        4.910399305     -2.142835261      0.704483063
H        4.910056760      0.193406585      1.561990242
H        2.880027212      1.585156177      1.374283498
H       -2.632387445      0.885747168     -0.897162167
H       -4.612704699     -0.473776686     -0.307724139
H       -4.485368931     -2.130043953      1.544915620
H       -2.358104422     -2.419190127      2.803673139
H       -0.372120455     -1.067686279      2.215707200
Li      -0.287882883      2.380076290     -3.407482669
