13
LiC4N2H6
C        2.149185408     -0.036643355     -0.063494514
C        0.654964735     -0.012874780     -0.067494925
C       -0.187242655      1.074613405     -0.096723829
N       -1.458974973      0.554040140     -0.086611442
H       -2.321697973      1.080370140     -0.086735442
C       -1.335613697     -0.799405074     -0.052149758
N       -0.082650641     -1.169962388     -0.040065872
H        2.523819420     -0.544879578      0.836353391
H        2.527785153     -0.590398479     -0.934351468
H        2.561652294      0.980068739     -0.088692698
H        0.007030640      2.142142419     -0.123112402
H       -2.200391906     -1.460895853     -0.037458101
Li       0.646002513     -3.116434778      0.010439721
