13
LiC4N2H3SO2
O       -1.576103635      2.381180901      0.155086030
C       -1.116318373      1.244458012      0.154957017
C       -1.787921082     -0.000258151      0.154925902
H       -2.874577082     -0.000258151      0.155315902
C       -1.116317873     -1.244973988      0.154244017
N        0.316818170     -1.133829640      0.154615139
C        1.046784915     -0.000257463      0.154697748
N        0.316817627      1.133314360      0.154667139
S        2.733958918     -0.000257054      0.154600844
O       -1.576101424     -2.381697099      0.155462030
H        0.827491398     -2.008661516      0.154688709
H        0.827490416      2.008146484      0.154634709
Li      -2.522900165      0.003294287     -1.979047417
