16
LiC7N2H6
H        1.759525525     -2.090924273     -0.391737273
C        1.517097525     -1.030570273     -0.391759273
C        0.149773525     -0.520714273     -0.391750273
C       -0.916947475     -1.433955273     -0.391703273
C       -2.233499475     -0.985067273     -0.391694273
C       -2.515313475      0.381193727     -0.391731273
C       -1.461180475      1.294841727     -0.391778273
C       -0.141766475      0.853799727     -0.391787273
N        2.529374525     -0.215389273     -0.391796273
N        3.386268525      0.523612727     -0.391827273
H       -0.705796475     -2.505186273     -0.391674273
H       -3.048514475     -1.710690273     -0.391655273
H       -3.547961475      0.731650727     -0.391724273
H       -1.666747475      2.366546727     -0.391808273
H        0.671557525      1.582944727     -0.391827273
Li       1.628066294     -1.744588308     -2.529962533
