14
LiC5N2H6
N        2.225331635     -0.000620306      0.270727540
C        0.863018402     -0.000567441      0.247808514
C        0.123611959      1.196250252      0.235280723
C       -1.264226089      1.131050107      0.211808040
N       -1.967419644     -0.000457606      0.199986864
C       -1.264316047     -1.132019891      0.211934283
C        0.123517835     -1.197327746      0.235353930
H        2.740827914      0.865304691      0.279953303
H        2.740756667     -0.866585308      0.280250712
H        0.630759350      2.162552573      0.243832858
H       -1.841371406      2.061708504      0.202044765
H       -1.841533937     -2.062633493      0.202191397
H        0.630589986     -2.163669423      0.243920432
Li      -4.046122973     -0.000376942      0.164866144
