38
LiSi2C13H22
C        0.259582142      1.681412551      1.064143870
C        0.632902467      0.585706791      0.383689176
Si      -0.676633461     -0.691312200     -0.150872678
C       -0.844079781     -2.047614276      1.160693661
Si      -2.760274356      0.360626143     -0.453415857
C       -2.554318246      1.942703472     -1.464574559
C       -3.865531027     -0.839912782     -1.412791176
C       -3.607049232      0.754380035      1.192853848
C       -0.152997236     -1.461717362     -1.795116205
C        2.063976018      0.380916320      0.031225747
C        2.840977703      1.440298327     -0.460484422
C        4.183504779      1.254527762     -0.782461480
C        4.777262478      0.003071994     -0.622225095
C        4.015734250     -1.062049781     -0.141821196
C        2.671994245     -0.876077682      0.173333197
H        0.991477142      2.412383551      1.426135870
H       -0.787026858      1.873445551      1.320151870
H       -1.047284817     -1.603683808      2.146564692
H       -1.680578425     -2.717616703      0.907928934
H        0.064013383     -2.663091656      1.244959921
H       -2.097800552      1.721102764     -2.441188400
H       -3.529437268      2.421047528     -1.645118265
H       -1.905451934      2.664942060     -0.948046611
H       -3.978423025     -1.795998907     -0.879222584
H       -4.869995121     -0.411690122     -1.555518589
H       -3.443787239     -1.052858843     -2.406710426
H       -3.031312978      1.467970157      1.800341725
H       -4.601025937      1.193232290      1.012657724
H       -3.745902896     -0.160103501      1.789265934
H        0.818634378     -1.971007695     -1.711944371
H       -0.899568929     -2.197634846     -2.130529788
H       -0.059878673     -0.688829408     -2.573364925
H        2.373630759      2.416128538     -0.607270073
H        4.768372955      2.091422952     -1.167963034
H        5.828085232     -0.143866071     -0.875861610
H        4.470968219     -2.045331523     -0.011564799
H        2.084551496     -1.714757625      0.553948630
Li       0.283616458      1.218336716      3.272996994
