35
LiC13N2H18O
O       -2.067478025      2.482385772     -0.523663144
C       -1.742446025      1.348240772     -0.258462144
C       -0.358454025      0.885641772      0.175714856
H       -0.040008025      1.489572772      1.042174856
C        0.633185975      1.136687772     -0.979643144
C        1.985518975      0.535823772     -0.703381144
C        2.323495975     -0.723677228     -1.211611144
C        3.549903975     -1.314802228     -0.905529144
C        4.458251975     -0.650686228     -0.084437144
C        4.133426975      0.606208772      0.427673856
C        2.907215975      1.191621772      0.122079856
N       -0.574339025     -0.496934228      0.547737856
C       -1.825555025     -1.004918228     -0.018948144
C       -1.600399025     -1.861333228     -1.272404144
C       -2.593055025     -1.800338228      1.036234856
N       -2.521463025      0.235028772     -0.352973144
C       -3.887754025      0.288575772     -0.802507144
H        0.219762975      0.714181772     -1.908922144
H        0.703600975      2.225216772     -1.121230144
H        1.620167975     -1.241561228     -1.869403144
H        3.797922975     -2.294877228     -1.316433144
H        5.419687975     -1.108577228      0.152541856
H        4.842258975      1.134998772      1.066903856
H        2.658274975      2.177015772      0.523942856
H        0.221936975     -1.101977228      0.367626856
H       -0.984019025     -2.737742228     -1.020553144
H       -2.551039025     -2.231237228     -1.684096144
H       -1.086894025     -1.276522228     -2.048856144
H       -2.783661025     -1.158845228      1.906545856
H       -3.545705025     -2.186836228      0.644090856
H       -1.982707025     -2.654934228      1.360746856
H       -4.584172025     -0.062526228     -0.025709144
H       -4.109583025      1.338403772     -1.032224144
H       -4.037166025     -0.315424228     -1.711566144
Li      -0.771773328     -0.528604702      2.617099516
