55
LiC23N2H28O
C        4.171462307     -0.172612174     -1.170144815
N        2.859622030     -0.118411305     -0.570991230
C        2.132032095     -1.250790374     -0.021597728
H        2.032316689     -2.043258724     -0.791063762
N        0.828677565     -0.656976245      0.255087648
C       -0.341095388     -1.374739067      0.163507902
C       -1.574379085     -0.833580209      0.064404411
C       -2.829498985     -1.581174981     -0.076826545
C       -4.028219113     -0.858962229     -0.198866570
C       -5.253504018     -1.506018916     -0.334328717
C       -5.313945524     -2.898185226     -0.351236585
C       -4.132238757     -3.631616441     -0.228954428
C       -2.908605000     -2.984902281     -0.092740694
C        0.806156360      0.775480407      0.068002298
H        0.100654837      1.030623904     -0.746641801
C        0.423992413      1.591684732      1.326095568
C       -0.524049964      2.727910153      1.029441998
C       -1.802345231      2.759443343      1.594920881
C       -2.687458036      3.796631302      1.298143560
C       -2.301522112      4.814116220      0.428246958
C       -1.028951459      4.788042848     -0.144204830
C       -0.145409644      3.752135040      0.151460476
C        2.203420148      1.068396176     -0.450605485
O        2.650332575      2.156986292     -0.732685159
C        2.799488966     -1.886141473      1.234848629
C        3.137939886     -0.792760401      2.247314788
C        1.822299443     -2.883000919      1.868147954
C        4.063236608     -2.656088520      0.830842971
H        4.249720396      0.662873210     -1.877532312
H        4.978867009     -0.063610850     -0.428814334
H        4.300896780     -1.124122355     -1.703318266
H       -0.199588554     -2.454686094      0.081098334
H       -1.685558036      0.252345735      0.118948054
H       -3.988066085      0.233020162     -0.188662358
H       -6.167247120     -0.916549721     -0.428151307
H       -6.271505786     -3.409541730     -0.457985746
H       -4.164855339     -4.722553299     -0.237728237
H       -2.003239201     -3.586555898      0.007420635
H       -0.039062623      0.899185765      2.044430691
H        1.341251998      1.984572979      1.793334542
H       -2.108250816      1.960044599      2.274989320
H       -3.681236748      3.807646722      1.748916813
H       -2.991753230      5.626260758      0.194636646
H       -0.721647009      5.581862521     -0.827042741
H        0.850262212      3.719166135     -0.299883436
H        2.233798991     -0.229555109      2.523940442
H        3.553044575     -1.235743430      3.164493111
H        3.878018439     -0.083270737      1.847434805
H        1.517554539     -3.661592435      1.149793196
H        2.310079171     -3.389261951      2.713899521
H        0.920036457     -2.383451872      2.246807524
H        4.873172303     -1.995856515      0.498101995
H        4.440279210     -3.225314566      1.693194254
H        3.850190356     -3.376853901      0.025228995
Li      -2.078659790     -0.548636737     -2.117007331
