24
LiC6N3H10O4
O       -4.234641893      1.562153088     -0.154165824
C       -4.619510309      0.372254741     -0.115917131
O       -5.749359934     -0.107450945     -0.012766113
C       -3.454105812     -0.684199829     -0.219877018
N       -2.212321981      0.046675479     -0.306842547
C       -0.991152846     -0.468001105     -0.337058086
C        0.140850948      0.570440660     -0.417600601
N        1.386379718     -0.143747393     -0.339773960
C        2.581804577      0.455541221     -0.230086288
C        3.765129415     -0.489712468     -0.015717858
N        4.979930849      0.144432014     -0.481762326
O        2.742283576      1.664559686     -0.246552074
O       -0.715293634     -1.664536662     -0.313835529
H       -3.475363799     -1.342539184      0.662540962
H       -3.617599080     -1.319250597     -1.105079432
H       -2.428715475      1.055636600     -0.296309629
H        0.056709601      1.136378597     -1.360216496
H        0.049775681      1.302510785      0.400408788
H        1.270236515     -1.156205943     -0.321229587
H        3.758846271     -0.727320251      1.067387342
H        3.571630722     -1.437555388     -0.545074765
H        4.854788849      1.151988014     -0.371999326
Li       6.559152220     -0.439661648      0.737719307
H        5.170040681     -0.125387963     -1.425719651
