33
LiC13NH16O2
O        0.919301784     -2.236794174     -0.030009934
C        0.864001784     -1.007250174      0.063695066
C        2.223031784     -0.288540174      0.181630066
C        3.326420784     -1.073380174      0.538385066
C        4.599273784     -0.519601174      0.657226066
C        4.800258784      0.838203826      0.401993066
C        3.714782784      1.628207826      0.023221066
C        2.440834784      1.068888826     -0.084961934
C       -0.271479216     -0.165604174      0.112819066
H       -0.101054216      0.890065826      0.301303066
C       -1.625336216     -0.617985174     -0.068733934
N       -2.643198216      0.347609826      0.170642066
C       -4.004095216     -0.043560174     -0.110134934
C       -4.651402216     -0.822380174      1.034292066
C       -2.432152216      1.599024826      0.852282066
C       -2.154610216      2.767386826     -0.095546934
O       -1.995724216     -1.730531174     -0.435666934
H        3.133527784     -2.135090174      0.702609066
H        5.444574784     -1.149887174      0.945334066
H        5.797551784      1.275771826      0.489262066
H        3.862057784      2.688505826     -0.196510934
H        1.605016784      1.693233826     -0.404516934
H       -4.591436216      0.863519826     -0.341445934
H       -3.995398216     -0.677977174     -1.006529934
H       -5.696157216     -1.088125174      0.805522066
H       -4.072835216     -1.743071174      1.189292066
H       -4.642337216     -0.236181174      1.967242066
H       -3.328332216      1.826326826      1.458521066
H       -1.602389216      1.490092826      1.566492066
H       -1.257510216      2.552085826     -0.693594934
H       -2.995378216      2.906897826     -0.792598934
H       -1.998512216      3.710221826      0.452399066
Li      -0.322925655      0.169042789      2.344279053
