25
LiSiC7H16
C        2.660120520     -0.893878109      0.079347558
C        2.289447520      0.545555891      0.278924558
C        1.399203290      1.229686268     -0.451604377
C        0.404441336      0.670421531     -1.423853981
Si      -1.263033182      0.310365134     -0.582734545
C       -1.898386382      1.889677035      0.222497496
C       -2.489730383     -0.289306072     -1.880746699
C       -1.012994761     -1.013099258      0.732163018
H        2.726406520     -1.420749109      1.044671558
H        1.931912520     -1.430837109     -0.542425442
H        3.648760520     -0.983451109     -0.397469442
H        2.993117520      1.145185891      0.865221558
H        1.353394687      2.313263801     -0.297328912
H        0.225009325      1.385525903     -2.242814292
H        0.759868071     -0.262763109     -1.889455916
H       -2.008499164      2.696366389     -0.518278338
H       -2.880373134      1.725173838      0.691128795
H       -1.204364364      2.235499783      1.003299139
H       -2.134908144     -1.212585821     -2.363222715
H       -3.470001992     -0.501163674     -1.427386555
H       -2.637519135      0.467876674     -2.665546239
H       -0.261171855     -0.686871525      1.466902077
H       -1.952658066     -1.212435262      1.269553071
H       -0.670115098     -1.959760068      0.287431707
Li       4.252629868      0.474829773     -0.832363832
