31
LiC13H13O4
O        0.710655570      2.360049277     -1.069146581
C        1.096552923      1.245366840     -0.761460440
C        0.487984923      0.001285840     -1.064688440
C       -0.870298964      0.001869386     -1.707159920
C       -1.965684429     -0.015303328     -0.666697370
C       -2.458219373      1.180927591     -0.127620967
C       -3.421769778      1.165069828      0.879898207
C       -3.906872383     -0.047892032      1.371486184
C       -3.408841574     -1.244597335      0.853660052
C       -2.445293564     -1.228215707     -0.153843757
C        1.083224816     -1.243322867     -0.738128644
O        2.277609665     -1.166081188     -0.021684231
C        2.490479242      0.007327302      0.724826833
C        1.580903815      0.023694174      1.956842474
C        3.958263560      0.003101454      1.110820361
O        2.290054283      1.168791482     -0.043501380
O        0.685316576     -2.359390860     -1.024812404
H       -0.971734772      0.905018958     -2.327292094
H       -0.962956641     -0.887938298     -2.347630090
H       -2.045566624      2.122997368     -0.497537261
H       -3.794560379      2.107298268      1.289069021
H       -4.662479072     -0.060555512      2.160105528
H       -3.771460241     -2.199446890      1.242192173
H       -2.022511219     -2.157498436     -0.544108986
H        1.772060525     -0.869950245      2.567082924
H        1.781630937      0.926500363      2.550290637
H        0.526561876      0.026418718      1.648478484
H        4.557115851     -0.008665630      0.191082537
H        4.197095209      0.906783379      1.687420844
H        4.187491909     -0.892174505      1.704185122
Li       0.754964365      0.024788679     -3.305719139
