26
LiC13N2H10
N        0.020071118      3.574978457     -1.008114318
N        0.019428118      2.443311457     -1.008150318
C        0.019404118      1.135622457     -1.008190318
C        1.339126118      0.474651457     -0.982541318
C        1.493702118     -0.792150543     -0.396367318
C        2.743758118     -1.403089543     -0.356075318
C        3.864064118     -0.762229543     -0.884684318
C        3.721661118      0.500731457     -1.458509318
C        2.472297118      1.110804457     -1.513558318
C       -1.300346882      0.474724457     -1.033885318
C       -2.433543882      1.111000457     -0.503066318
C       -3.682925882      0.500969457     -0.558144318
C       -3.825330882     -0.762063543     -1.131813318
C       -2.705001882     -1.403039543     -1.660231318
C       -1.454921882     -0.792151543     -1.619902318
H        0.628756118     -1.290478543      0.043828682
H        2.844766118     -2.386826543      0.105477682
H        4.842181118     -1.243150543     -0.846630318
H        4.589251118      1.013315457     -1.876934318
H        2.370749118      2.093161457     -1.980507318
H       -2.332004882      2.093419457     -0.036248318
H       -4.550533882      1.013651457     -0.139876318
H       -4.803464882     -1.242945543     -1.169897318
H       -2.806007882     -2.386832543     -2.121664318
H       -0.589956882     -1.290579543     -2.059947318
Li       0.060495953      0.400879643     -3.141852301
