34
LiC15N2H15Cl
C       -0.610126616     -1.186781530      2.451857957
N       -1.143808618     -1.167650594      1.117627808
C       -0.324267334     -1.594694950     -0.010055444
N       -1.141639960     -1.187124537     -1.146486410
C       -0.605409756     -1.229198785     -2.479168362
C       -2.027016289     -0.199100754     -0.730357528
C       -2.811287279      0.681666182     -1.451111382
C       -3.629350344      1.579919064     -0.733448265
C       -3.630675264      1.591840759      0.652289824
C       -2.814000741      0.706079548      1.386864322
C       -2.028367916     -0.186944269      0.682870545
C        1.068446515     -0.963744000     -0.014149315
C        2.213159426     -1.757938887     -0.006142008
C        3.480347238     -1.170482822     -0.009983342
C        3.611850098      0.213897275     -0.021849522
C        2.459181484      1.003180999     -0.029821611
Cl       2.614180050      2.734163384     -0.044687282
C        1.192195815      0.431173328     -0.026109025
H        0.059707284     -0.331500445      2.663631867
H       -1.435384845     -1.174834200      3.177806008
H       -0.042262560     -2.115299918      2.604564415
H       -0.194930867     -2.694762003     -0.000467162
H       -0.037237594     -2.160179462     -2.614778225
H       -1.429279867     -1.229792515     -3.206789553
H        0.064812717     -0.377657040     -2.704356280
H       -2.793710691      0.690627158     -2.541270114
H       -4.256187594      2.282502022     -1.283631066
H       -4.258551058      2.303774840      1.189103307
H       -2.798510109      0.733794334      2.476737933
H        2.112780596     -2.846037312      0.003180879
H        4.374253691     -1.795928192     -0.003687983
H        4.591669171      0.691187417     -0.025029119
H        0.307067697      1.071669894     -0.032525407
Li       0.084132214     -5.068323841      0.020221014
