19
LiC7H5S2O4
O       -0.975395362     -2.252355508     -1.521493436
S       -0.860199362     -1.456796508     -0.291157436
C        0.773632638     -0.692605508     -0.291249436
C        0.773321638      0.688220492     -0.291249436
C        1.961133638      1.408179492     -0.291340436
C        3.162593638      0.698118492     -0.291409436
C        3.162903638     -0.701501508     -0.291408436
C        1.961743638     -1.412080508     -0.291339436
S       -0.860874362      1.451648492     -0.291165436
O       -0.976370362      2.247225492      0.939130564
O       -0.976448362      2.247144492     -1.521505436
C       -1.725519362     -0.002779508     -0.291021436
H       -2.810512362     -0.002945508     -0.290451436
O       -0.975304362     -2.252419508      0.939148564
H        1.934928638      2.499421492     -0.291351436
H        4.111168638      1.238673492     -0.291469436
H        4.111723638     -1.241623508     -0.291468436
H        1.935950638     -2.503329508     -0.291349436
Li      -2.448844720      0.014556784      1.846862770
