20
LiC9NH9
C       -2.327855791     -1.221289784     -0.702059067
N       -1.470802219     -0.170789683     -0.212200874
C       -0.159800661     -0.339506241      0.163788072
C        0.341160908      0.918737355      0.586926593
C        1.674893889      1.005514495      1.023577410
C        2.457708393     -0.138473993      1.027337044
C        1.938390150     -1.378949554      0.602391863
C        0.627679541     -1.499096294      0.165942890
C       -0.737767908      1.857002719      0.446698251
C       -1.807232448      1.152856226     -0.037796522
H       -2.450404629     -2.012773282      0.052829695
H       -3.314089792     -0.801308709     -0.932074647
H       -1.914563349     -1.669259410     -1.618408119
H        2.085373077      1.961259579      1.354299799
H        3.493942330     -0.082933617      1.364058540
H        2.580726332     -2.260877696      0.617566500
H        0.228849872     -2.460314698     -0.162017195
H       -0.720292051      2.918337927      0.676389480
H       -2.855112448      1.447565226     -0.037914522
Li      -0.790009053      1.812778990      2.702660158
