36
LiC19H16
C        4.318456440      0.034075452      0.437976438
C        3.621386968     -1.168958555      0.345620259
C        2.249528647     -1.170006952      0.096740364
C        1.546060072      0.030286476     -0.062787640
C        2.259792096      1.232347233      0.022640679
C        3.631437139      1.235147487      0.271451079
C        0.063147697      0.027064027     -0.430916071
C       -0.695758375     -1.204367441      0.046262927
C       -0.631614354     -1.631264077      1.378608101
C       -1.375582309     -2.725592667      1.811215134
C       -2.198877896     -3.413256215      0.918139488
C       -2.268671555     -2.998660824     -0.409201940
C       -1.520469542     -1.901927772     -0.838838409
C       -0.689535652      1.279765030     -0.001033954
C       -1.532625888      1.929468029     -0.905214811
C       -2.278028864      3.043529514     -0.517995393
C       -2.187478518      3.523874805      0.785856262
C       -1.345972899      2.884557808      1.697443926
C       -0.604217642      1.772782136      1.306992249
H        5.391324044      0.035729810      0.636193670
H        4.146710168     -2.117582884      0.468274313
H        1.718008011     -2.120300594      0.023893995
H        1.735857848      2.180654922     -0.108546371
H        4.165041820      2.184939865      0.335444676
H        0.022795506      0.006173474     -1.532515215
H        0.021870242     -1.109470160      2.081253622
H       -1.311091260     -3.045849647      2.852405972
H       -2.781638905     -4.271281572      1.256646353
H       -2.905877079     -3.530799046     -1.117249434
H       -1.579113513     -1.580776852     -1.881725082
H       -1.608285515      1.555942089     -1.929397305
H       -2.929699129      3.537293181     -1.240546936
H       -2.768107608      4.395634864      1.091328992
H       -1.264814564      3.256756802      2.720022751
H        0.064579492      1.290182354      2.023125804
Li      -0.064677143     -0.039111601     -3.920484603
