21
LiC10H10
C        0.286554496     -0.551564859     -0.049570222
C       -1.036651099     -1.255060695     -0.241021962
C       -2.187979249     -0.514191210      0.437453736
C       -2.147442286      0.956968048      0.114156068
C       -0.982816710      1.579642779     -0.112665880
C        0.297742692      0.858217618     -0.043211958
C        1.517117292      1.537549264      0.047152070
C        2.717139139      0.836103110      0.144894078
C        2.704651129     -0.557387954      0.150170050
C        1.492321691     -1.242562726      0.050016769
H       -1.241612283     -1.301229567     -1.325973849
H       -0.971755045     -2.292989679      0.115229796
H       -3.149825613     -0.950793449      0.133331485
H       -2.124139371     -0.637942474      1.534643566
H       -3.080963187      1.524783258      0.113242381
H       -0.953003381      2.654842403     -0.305268495
H        1.518224190      2.629904055      0.047548140
H        3.661588143      1.377275241      0.219084527
H        3.639836388     -1.113969245      0.228940436
H        1.483476814     -2.335127403      0.044839618
Li      -1.986184044     -0.905363819      3.905625251
