33
LiC13H15O4
O       -0.905008319     -2.419630897      0.058863372
C       -1.100589319     -1.216519897     -0.065188628
C       -0.101842319     -0.183056897     -0.159467628
C       -0.479848319      1.200055103     -0.289130628
O        0.607715681      2.056716103     -0.129961628
C        0.332165681      3.430435103     -0.235535628
C       -0.250864319      3.993752103      1.051925372
O       -1.573087319      1.701735103     -0.483543628
C        1.313244217     -0.604581724     -0.136211123
C        2.297023517      0.009764074     -0.942159058
C        3.627357843     -0.397916412     -0.926782891
C        4.041886009     -1.452086594     -0.111805770
C        3.087309533     -2.085520490      0.684006896
C        1.757216661     -1.673466370      0.672706620
O       -2.396570319     -0.775961897     -0.119503628
C       -3.379453319     -1.775021897     -0.050558628
C       -4.725238319     -1.087602897     -0.163171628
H       -0.365177319      3.614492103     -1.067221628
H        1.296376681      3.911384103     -0.464889628
H       -1.226337319      3.525152103      1.235688372
H       -0.384047319      5.084605103      0.980116372
H        0.416579681      3.774098103      1.897895372
H        1.997227112      0.828435023     -1.595088570
H        4.349311308      0.110607775     -1.571633475
H        5.085022347     -1.776272023     -0.101953728
H        3.381870357     -2.916300619      1.331060335
H        1.028564045     -2.190557533      1.293827439
H       -3.292430319     -2.337732897      0.894983372
H       -3.234666319     -2.514821897     -0.855895628
H       -4.845185319     -0.356060897      0.648071372
H       -5.546462319     -1.817899897     -0.110528628
H       -4.791394319     -0.541599897     -1.114444628
Li       0.575730279     -0.599173372     -2.271762932
