24
LiC7NH13O2
C        3.370962646      1.275224442     -0.215296823
N        3.197387275     -0.151170544     -0.078569157
C        1.973253234     -0.686535910     -0.262924988
C        0.830151806     -0.022553255     -0.575476061
C       -0.420074194     -0.780523255     -0.575214061
O       -1.495170194      0.032851745     -0.575527061
C       -2.761846194     -0.612821255     -0.575965061
C       -3.826651194      0.459321745     -0.576339061
O       -0.526148194     -1.985647255     -0.575844061
C        4.344829002     -0.963556455      0.253057354
H        2.740543465      1.820705890      0.506642470
H        4.420288884      1.536478085     -0.033566571
H        3.093086262      1.611480904     -1.228155314
H        1.902245901     -1.772903605     -0.146308045
H        0.772522806      1.063961745     -0.575355061
H       -2.834740194     -1.266593255     -1.458879061
H       -2.835345194     -1.266575255      0.306911939
H       -3.733408194      1.096397745      0.313791939
H       -3.732825194      1.096358745     -1.466437061
H       -4.826163194      0.003809745     -0.576656061
H        4.777499730     -0.670083849      1.223528340
H        4.039271375     -2.014715254      0.317521270
H        5.131482163     -0.879567491     -0.514571587
Li      -0.130521869      0.722060752      1.326287613
