38
LiC13NH19O4
C        2.400943241      2.348865824     -0.171864922
C        1.224454241      1.407201824     -0.171762922
C        1.259050241      0.050765824     -0.171616922
C        2.493903241     -0.752904176     -0.171506922
O        3.641664241     -0.045410176     -0.171302922
C        4.842269241     -0.813160176     -0.171202922
C        6.006690241      0.150012824     -0.171131922
O        2.490127241     -1.959155176     -0.171547922
C       -0.000003759     -0.787275176     -0.171580922
C       -1.259057759      0.050764824     -0.171557922
C       -2.493909759     -0.752904176     -0.171392922
O       -3.641671759     -0.045410176     -0.171278922
C       -4.842275759     -0.813160176     -0.171101922
C       -6.006696759      0.150013824     -0.171031922
O       -2.490133759     -1.959156176     -0.171336922
C       -1.224461759      1.407201824     -0.171690922
C       -2.400952759      2.348863824     -0.171718922
N       -0.000004759      2.050249824     -0.171829922
H        3.034674241      2.180270824     -1.050323922
H        2.058019241      3.392434824     -0.172282922
H        3.034346241      2.180855824      0.706950078
H        4.848680241     -1.469387176      0.712009078
H        4.848806241     -1.469421176     -1.054388922
H        5.980093241      0.792148824     -1.062460922
H        5.979954241      0.792187824      0.720163078
H        6.955216241     -0.403438176     -0.171045922
H       -0.000021759     -1.469516176     -1.038183922
H        0.000015241     -1.469488176      0.695044078
H       -4.848845759     -1.469456176     -1.054261922
H       -4.848654759     -1.469352176      0.712136078
H       -5.979941759      0.792215824      0.720244078
H       -5.980119759      0.792121824     -1.062380922
H       -6.955222759     -0.403437176     -0.170907922
H       -3.034387759      2.180746824      0.707050078
H       -2.058029759      3.392433824     -0.171993922
H       -3.034650759      2.180374824     -1.050223922
H       -0.000004759      3.059598824     -0.171899922
Li       0.000056413     -2.947813925      2.572982570
