14
LiC4H8O
C       -0.588758008      1.217250661      0.907047582
C       -0.599672350      1.223191483     -0.638842474
C       -0.589121063     -0.275346212     -0.991958036
O       -1.126809955     -0.929672602      0.129600802
C       -0.573303252     -0.283956057      1.248451583
H        0.278271731      1.741870696      1.329429033
H       -1.493012329      1.696333207      1.304613509
H       -1.509423984      1.705266291     -1.019907392
H        0.261335588      1.751089265     -1.069379468
H       -1.196210827     -0.530898348     -1.870104399
H        0.447824467     -0.619961856     -1.175006096
H        0.466104765     -0.629912066      1.414186254
H       -1.167947332     -0.546282546      2.133092269
Li       2.684686006     -1.363354310     -1.569870777
