19
LiC9NH5F3
N       -5.008420169     -1.091231454     -0.136793953
C       -4.212724169     -0.236319454     -0.137086953
C       -3.249669169      0.788625546     -0.138014953
H       -3.607581169      1.818474546     -0.124886953
C       -1.876520495      0.539095451     -0.298410030
C       -0.926541324      1.610824290     -0.380112298
C        0.424608700      1.385782827     -0.538903092
C        0.938248121      0.080576521     -0.631374707
C        2.395643255     -0.149518709     -0.733653999
F        3.044080491     -0.130147093      0.455721598
F        2.698202044     -1.342288998     -1.277933121
F        3.022164464      0.784226980     -1.477881907
C        0.032593987     -0.992187291     -0.554755712
C       -1.321040777     -0.780161997     -0.397546029
H       -1.297964637      2.636889659     -0.318370640
H        1.110108554      2.235000271     -0.602630249
H        0.412157847     -2.014082330     -0.630760965
H       -2.003401057     -1.631425404     -0.349227689
Li      -4.202526335      1.007669097     -2.172254896
