62
LiC31NH29
N       -0.421308111      1.260507043     -1.384850829
C       -1.587493112      0.615903928     -1.090781374
C       -2.754124470      1.185569722     -0.708032383
C       -3.962070470      0.411331722     -0.396122383
C       -5.217175470      1.040927722     -0.384465383
C       -6.379279470      0.333725722     -0.083790383
C       -6.317716470     -1.026216278      0.215712617
C       -5.075946470     -1.664303278      0.221852617
C       -3.914900470     -0.957498278     -0.070827383
C       -0.345321661      2.694614828     -1.580178087
C        0.851789708      2.838637166     -2.514108058
C        1.784759441      1.699208240     -2.089121592
C        0.862251867      0.586398044     -1.533371078
C        1.395943507     -0.072635171     -0.192422185
C        0.471201959     -1.239905836      0.234205565
C        0.205163215     -2.258092021     -0.696660731
C       -0.583958026     -3.355908554     -0.371326800
C       -1.113327163     -3.482618126      0.914576498
C       -0.823915715     -2.506935186      1.861426798
C       -0.036348941     -1.400885807      1.527103648
C        2.753860520     -0.766540583     -0.410486949
C        3.411413138     -1.298743338      0.710968426
C        4.602156149     -2.002668660      0.587088652
C        5.167376264     -2.209713680     -0.673771481
C        4.518623589     -1.710058848     -1.795958400
C        3.321909669     -0.997803460     -1.665659298
C        1.489718515      1.048764061      0.853770318
C        0.325843861      1.592159835      1.422853878
C        0.385048040      2.681274754      2.289651243
C        1.610124453      3.265886974      2.607931538
C        2.772916429      2.746736720      2.046661871
C        2.710916071      1.653289711      1.181663728
H       -1.531887758     -0.469648039     -1.186912783
H       -2.831946470      2.272749722     -0.627761383
H       -5.276635470      2.105414722     -0.623045383
H       -7.340673470      0.850727722     -0.085324383
H       -7.225971470     -1.581978278      0.452901617
H       -5.007518470     -2.724645278      0.473333617
H       -2.952591470     -1.471940278     -0.016605383
H       -1.282487440      3.053877626     -2.031721398
H       -0.196459963      3.235400654     -0.626562658
H        0.520225324      2.690688814     -3.552219062
H        1.332059768      3.823342650     -2.447439515
H        2.398114493      1.348993933     -2.927144042
H        2.474811336      2.043186434     -1.307429749
H        0.751305797     -0.224464224     -2.272170193
H        0.638310497     -2.203908821     -1.697353495
H       -0.775244797     -4.123035889     -1.123258140
H       -1.732965290     -4.341659980      1.176000508
H       -1.211618816     -2.597235802      2.877275586
H        0.180798096     -0.664433387      2.299150646
H        2.968774631     -1.158007140      1.699837250
H        5.089121248     -2.400543199      1.478771544
H        6.101302419     -2.764158911     -0.775750056
H        4.938634581     -1.872147356     -2.790051281
H        2.838769829     -0.638289838     -2.572250159
H       -0.649418467      1.165442155      1.184673565
H       -0.539549918      3.075249308      2.715245193
H        1.655981850      4.119732861      3.285521058
H        3.741574166      3.193085057      2.276987088
H        3.638074267      1.272948887      0.751242710
Li      -3.999533852      1.612667094     -2.541224219
