20
LiC8N2H8O
C       -3.281761261      0.221013938      1.439405356
O       -2.174289097     -0.637173158      1.398548362
C       -0.932618402     -0.096396943      1.330555325
C       -0.696994065      1.298344834      1.298039898
C        0.594619662      1.804026678      1.228114692
C        1.668028505      0.910413434      1.189931110
N        3.029890508      1.145862684      1.120686696
C        3.570635063     -0.032678136      1.112671501
N        2.656895325     -1.059822776      1.172149646
H        2.863961843     -2.048427039      1.177071240
C        1.410046651     -0.480058006      1.223451672
C        0.121892332     -1.008076014      1.293548447
H       -4.171267503     -0.416759511      1.492063446
H       -3.256991848      0.875864169      2.326559436
H       -3.343861406      0.849060538      0.534866263
H       -1.534399572      1.992743426      1.327835639
H        0.777802182      2.878354599      1.202971964
H        4.640482468     -0.235200951      1.064226190
H       -0.094177694     -2.075452718      1.320149321
Li       4.015133643      2.975041423      1.045572758
