36
LiSnC18H16
H        0.005927515     -0.001045401     -2.257684661
Sn       0.025626240     -0.010000506     -0.530120104
C       -1.131527323      1.629679446      0.254571714
C       -2.151781253      1.389622331      1.185518272
C       -2.894218279      2.443413853      1.721445698
C       -2.623434287      3.754999361      1.334872290
C       -1.609647111      4.011115986      0.411420625
C       -0.871776292      2.955285829     -0.124156289
C       -0.807705902     -1.844710142      0.233131872
C       -0.083581255     -2.621348544      1.148352938
C       -0.621993882     -3.798191284      1.671925881
C       -1.896219904     -4.213483934      1.288499636
C       -2.630842112     -3.450684791      0.380469811
C       -2.088475792     -2.276709467     -0.142638654
C        2.040652235      0.172662149      0.211304145
C        3.050100163     -0.714126716     -0.192040298
C        4.344891129     -0.604631407      0.315297909
C        4.650266045      0.398610710      1.235266143
C        3.658570151      1.287789718      1.646431818
C        2.363194699      1.173465186      1.138519547
H       -2.375474346      0.366029573      1.500602322
H       -3.685896130      2.238490504      2.444293311
H       -3.202638943      4.579746666      1.753509599
H       -1.394096829      5.036564605      0.105971086
H       -0.082159517      3.178803022     -0.847729854
H        0.916760407     -2.307652292      1.461382627
H       -0.044248059     -4.391341357      2.383014186
H       -2.318583680     -5.132717843      1.697833571
H       -3.629057504     -3.771919586      0.077692417
H       -2.681746183     -1.694115190     -0.853716333
H        2.832682545     -1.507891106     -0.912933620
H        5.118095216     -1.303352238     -0.009103292
H        5.663026387      0.486429521      1.632188212
H        3.892888716      2.073512912      2.366853231
H        1.595527654      1.877548564      1.473169241
Li      -0.021322557      0.011342572     -4.647497200
