35
LiC14NH14O5
O        5.433960487     -1.153144508     -1.281663667
C        5.622325409     -0.282657144     -0.451217473
O        6.654164382      0.476421571     -0.273606292
O        7.768421728      0.267972052     -1.122521940
C        4.547868770      0.033066736      0.599057371
C        3.151174689     -0.024067114     -0.001486960
C        2.035727796      0.115168598      1.028398724
C        0.640709163      0.054544424      0.415932159
C       -0.456455850      0.199199098      1.464765848
N       -1.793081891      0.151725459      0.896024260
C       -2.499882669     -1.030855194      0.683455088
C       -3.777191316     -0.623469480      0.007274710
C       -4.844881216     -1.391734213     -0.426806311
C       -5.913367992     -0.718855767     -1.030693157
C       -5.897369519      0.671578170     -1.185343585
C       -4.812783692      1.436511376     -0.740992614
C       -3.761097781      0.758410977     -0.146660715
C       -2.472218379      1.274629170      0.425532563
O       -2.083935165      2.409334937      0.487462751
O       -2.139633902     -2.132483252      0.997316698
H        4.627689203     -0.726830414      1.397787816
H        4.757395079      1.010216983      1.058718406
H        3.047411618      0.768671213     -0.762444127
H        3.061807546     -0.978730379     -0.543367336
H        2.136643531     -0.683025179      1.785594409
H        2.152231204      1.068991335      1.573805597
H        0.525912002      0.855926605     -0.332673961
H        0.508031501     -0.904222698     -0.111900853
H       -0.391291345     -0.612739409      2.203263309
H       -0.364784295      1.162044308      1.987694840
H       -4.840167636     -2.475096595     -0.299311312
H       -6.774039248     -1.285829151     -1.389079118
H       -6.745558164      1.165039647     -1.662528289
H       -4.783654500      2.521022457     -0.854966612
Li       9.203804877      1.559492421     -0.637000211
