36
LiBC18HF15
F       -5.333241099     -1.480679151      1.640793354
C       -4.084331204     -1.156396053      1.315171543
C       -3.034412959     -2.012449148      1.613862532
F       -3.279668533     -3.163734054      2.236104729
C       -1.731656684     -1.659855240      1.254060803
F       -0.793804091     -2.557947619      1.568734860
C       -1.410520257     -0.471692559      0.604251737
B        0.070026639     -0.013212782      0.079067387
H        0.022709219     -0.006715949     -1.139006887
C        0.493469507      1.501670356      0.553569093
C       -0.080484734      2.256930909      1.573183665
F       -1.100930225      1.783062423      2.289828950
C        0.350659223      3.539452462      1.912801632
F       -0.245064895      4.224507425      2.886773856
C        1.420238488      4.105423490      1.231029848
F        1.848136966      5.326515005      1.544033521
C        2.037585471      3.384333344      0.214909322
F        3.066950772      3.917543380     -0.440894137
C        1.570631682      2.108941161     -0.092339795
F        2.216259633      1.460622279     -1.062940614
C        1.290145211     -0.991542828      0.553831107
C        2.122572825     -1.665011588     -0.332882145
F        1.919482594     -1.606831278     -1.646888229
C        3.205252512     -2.440171219      0.087601580
F        3.976763960     -3.074528972     -0.793501163
C        3.481538181     -2.551933395      1.444050128
F        4.508424487     -3.289245561      1.859568517
C        2.673894213     -1.893529460      2.367455308
F        2.934443999     -2.004461912      3.668142827
C        1.608818721     -1.130629221      1.902163256
F        0.850786285     -0.522991654      2.817798109
C       -2.503546892      0.351032350      0.325812366
F       -2.310560767      1.516743893     -0.295273041
C       -3.816549729      0.042188803      0.661150388
F       -4.817310310      0.869607323      0.366712645
Li      -0.070061642      0.006021787     -3.527171730
