19
LiC7NH9O
N       -3.223275872     -0.299118671      0.018581198
C       -1.862429724     -0.112123406      0.109366062
C       -1.310066096      1.182494524      0.158902970
C        0.059329501      1.372996408      0.250392487
C        0.936342504      0.282730606      0.296370606
O        2.262227944      0.574197424      0.386046234
C        3.165387749     -0.492064172      0.434024369
C        0.404109250     -1.006188836      0.248186023
C       -0.976909137     -1.195449809      0.155987555
H       -3.850404872      0.488031329      0.018233198
H       -3.615576872     -1.226053671      0.017676198
H       -1.972729265      2.050017106      0.124591355
H        0.484564471      2.376613993      0.288610178
H        3.109198660     -1.116942380     -0.474522684
H        4.168970522     -0.056738272      0.504149716
H        2.992246449     -1.135506098      1.314417399
H        1.049918317     -1.883016495      0.281275954
H       -1.372121108     -2.212924243      0.119625959
Li      -4.020843053     -0.409063179      1.935359693
