9
LiC2H3O3
C       -0.012198122     -1.934687760      0.006358684
O        0.815000446     -0.821912243      0.006534676
C        0.126997356      0.451324210      0.006605266
O       -1.106867469      0.365707252      0.006498093
O        0.901428555      1.402106005      0.006761052
H       -0.677831545     -1.971565142      0.888585793
H       -0.677690356     -1.971391019     -0.875982193
H        0.629666838     -2.834170975      0.006321283
Li      -0.148208798      3.093086989     -0.047329057
