19
LiC8NH9
C       -3.664267121      0.090128780     -0.124956616
N       -2.273190121      0.458505780     -0.124982616
C       -1.403706121     -0.459930220     -0.125067616
C        0.048832879     -0.184920220     -0.125042616
C        0.510303287      1.117690655      0.085617471
C        1.877958215      1.389893546      0.087934945
C        2.790905093      0.358086607     -0.120883087
C        2.334756350     -0.946282577     -0.332015376
C        0.971623129     -1.218403214     -0.334455679
H       -4.157350121      0.526745780      0.756695384
H       -4.157404121      0.526676780     -1.006630616
H       -3.834029121     -1.002963220     -0.124986616
H       -1.689405121     -1.532215220     -0.125162616
H       -0.209707350      1.923476148      0.248918852
H        2.230730134      2.408925065      0.253002221
H        3.861618885      0.568589415     -0.119523915
H        3.050877772     -1.753268105     -0.495396263
H        0.587708499     -2.226588576     -0.496618488
Li      -1.680345475      2.451186435     -0.124798850
