26
LiC12NH11O
O       -2.371666412      2.044074431     -0.052335608
C       -2.791105233      0.923364292     -0.010008528
N       -2.000863921     -0.232662810     -0.016471402
C       -0.655515443     -0.202613877     -0.002030707
C        0.557143553     -0.178113517      0.005592194
C        1.989538553     -0.106055517     -0.001415806
C        2.772919553     -1.271801517      0.017422194
C        4.161500553     -1.182120517      0.009128194
C        4.787160553      0.064202483     -0.018603806
C        4.014144553      1.225675483     -0.037654806
C        2.625410553      1.146530483     -0.028675806
C       -2.777391934     -1.467096918      0.094071838
C       -4.185421855     -1.017154337     -0.317748799
C       -4.234271981      0.453703030      0.094014240
H        2.280818553     -2.244798517      0.038770194
H        4.760914553     -2.093834517      0.023641194
H        5.875986553      0.130232483     -0.025641806
H        4.497698553      2.203498483     -0.060106806
H        2.014439553      2.049791483     -0.042756806
H       -2.359693489     -2.238198608     -0.566305106
H       -2.746871489     -1.843660936      1.130072154
H       -4.290802358     -1.102324553     -1.408585930
H       -4.966486682     -1.630454333      0.147205292
H       -4.543232965      0.579907102      1.144279264
H       -4.881863292      1.088492520     -0.522082426
Li       1.698759637     -0.209101376     -1.941149049
