48
LiBC18H24SO3
C        2.468131343      4.784306020     -0.513773066
C        2.048448320      3.444789422      0.010799104
S        0.931389723      2.432356585     -0.846444795
C        2.443076263      2.824420969      1.166207647
C        1.842090539      1.536446400      1.343976302
C        0.991080887      1.164161640      0.333228079
B        0.118335887     -0.220944360      0.185404079
C       -1.482476113      0.119438640      0.226998079
C       -2.053220113      0.845794640      1.287269079
C       -3.414642113      1.117577640      1.353529079
C       -4.264879113      0.673971640      0.333344079
O       -5.593026113      0.988467640      0.469596079
C       -6.459942113      0.575738640     -0.539338921
C       -3.734268113     -0.040818360     -0.740403921
C       -2.357458113     -0.306011360     -0.774154921
O        0.423573887     -0.978025360     -1.053662921
C        1.283369887     -2.034260360     -0.724906921
C        1.085434887     -3.169571360     -1.725273921
C        2.738188887     -1.547805360     -0.780784921
C        0.848182887     -2.380816360      0.742675079
C       -0.420714113     -3.245553360      0.762151079
C        1.934566887     -3.050391360      1.579502079
O        0.556946887     -1.123056360      1.285278079
H        2.944712650      4.705276157     -1.503888498
H        1.613568411      5.471767482     -0.616881116
H        3.191759343      5.245140207      0.173850694
H        3.148305422      3.280083012      1.865683907
H        2.026950495      0.870659863      2.188840705
H       -1.396046113      1.211288640      2.082887079
H       -3.855399113      1.678338640      2.180418079
H       -6.191485113      1.010661640     -1.519139921
H       -6.476057113     -0.523863360     -0.647416921
H       -7.465147113      0.919353640     -0.261813921
H       -4.372020113     -0.394191360     -1.551598921
H       -1.937514113     -0.868985360     -1.612933921
H        1.431553887     -2.844156360     -2.718106921
H        1.656124887     -4.066924360     -1.434918921
H        0.021982887     -3.430575360     -1.805509921
H        2.908410887     -0.780754360     -0.012224921
H        3.460919887     -2.368417360     -0.645704921
H        2.904219887     -1.082203360     -1.763707921
H       -0.229449113     -4.285329360      0.451113079
H       -0.816574113     -3.247089360      1.788364079
H       -1.185281113     -2.805798360      0.105765079
H        2.794565887     -2.378709360      1.699073079
H        1.536958887     -3.273873360      2.581227079
H        2.274363887     -3.993815360      1.121500079
Li      -1.094367893      1.868878754      0.831551440
