27
LiC8H16O2
C        2.854641707      0.623876507     -0.367068291
C        2.041297789     -0.179575101      0.643120891
C        2.141716147      0.404064206      2.048442778
C        0.588883967     -0.251793371      0.190829284
O       -0.155138213     -1.060860956      1.065428902
C       -1.444487703     -0.486732653      1.188525940
H       -1.833305305     -0.762936960      2.179491804
C       -2.372841729     -0.982093185      0.090803694
C       -1.103263871      1.009284531      1.115317366
H       -0.733795552      1.326797068      2.108346444
C       -2.193488652      1.948376825      0.650257780
O       -0.029641695      1.019712881      0.189064197
H        2.470783266      1.653373916     -0.421204641
H        3.914029265      0.662690489     -0.076937990
H        2.793269240      0.185666501     -1.374528754
H        2.401523990     -1.222284915      0.657094768
H        1.775246446      1.442196536      2.049485360
H        1.540969770     -0.181720727      2.757164142
H        3.184499239      0.410649688      2.395943666
H        0.536643592     -0.649531377     -0.842682727
H       -2.401917999     -2.079566059      0.105894069
H       -3.394732410     -0.601956463      0.229122168
H       -2.013897545     -0.655885684     -0.896850220
H       -3.048871060      1.920687769      1.340687439
H       -1.810658368      2.976745514      0.614578927
H       -2.535251112      1.675556375     -0.357003694
Li       0.424023576     -1.506976614     -3.070732187
