23
LiSiC6H14O
C       -1.888841551     -1.208810666     -0.156785765
C       -1.747118684      0.102466301      0.078855162
O       -0.560455503      0.739730915      0.214653697
Si       1.021359954      0.141867549      0.139027137
C        1.353928252     -0.573643172     -1.560337996
C        2.076801608      1.654754566      0.427435318
C        1.295268006     -1.116154324      1.500197832
C       -2.895047521      1.054428420      0.225945630
H       -2.886609551     -1.644022666     -0.156706765
H       -1.036606551     -1.888781666     -0.156921765
H        1.112893025      0.168635066     -2.335868190
H        2.419577257     -0.832363520     -1.657739034
H        0.764932631     -1.478344445     -1.763769022
H        1.851316942      2.102708564      1.406139202
H        3.147179014      1.401417214      0.403064935
H        1.884919775      2.413174402     -0.345447598
H        0.705037950     -2.031743459      1.358415614
H        2.358226837     -1.399668959      1.542245156
H        1.020780508     -0.683938053      2.474039376
H       -2.847921437      1.539482976      1.212041420
H       -2.814542805      1.848990444     -0.530412816
H       -3.858529887      0.543980024      0.116819191
Li      -2.006383349     -2.301187971      1.814747838
