39
LiC13H21O4
O       -2.148436021     -2.395270937      0.242665574
C       -1.709286021     -1.259641937      0.242519574
C       -0.360324021     -0.785265937      0.242659574
C       -0.062366275      0.703466974      0.251814870
C        0.660349738      1.198945524      1.519194071
C        0.848600897      2.717292366      1.522288937
C        1.587558931      3.184485946      0.268352386
C        0.851447649      2.732163822     -0.992695493
C        0.663204726      1.213891103     -1.007977133
C        0.672979979     -1.771216937      0.242611574
O        1.953740979     -1.184482937      0.242591574
C        3.022272979     -2.091063937      0.242652574
C        4.309098979     -1.287780937      0.242959574
O        0.620514979     -2.986915937      0.242626574
O       -2.646348021     -0.209982937      0.242783574
C       -3.986509021     -0.615180937      0.242945574
C       -4.845383021      0.635093063      0.242951574
H       -1.041215166      1.205374344      0.253688610
H        0.079274847      0.881956978      2.399880013
H        1.643403841      0.707799927      1.586294269
H       -0.141088765      3.209165607      1.553235971
H        1.389983074      3.040881494      2.427705785
H        1.714164369      4.280512352      0.274975688
H        2.601722099      2.745407136      0.266899564
H       -0.138175897      3.224379378     -1.020061417
H        1.394872083      3.066432116     -1.892994919
H        1.646410754      0.723542511     -1.078643546
H        0.084127128      0.907341085     -1.893659224
H        2.966159979     -2.755043937      1.122104574
H        2.966462979     -2.754817937     -0.636998426
H        4.357967979     -0.641333937     -0.645597426
H        4.357702979     -0.641592937      1.131718574
H        5.187394979     -1.950632937      0.242991574
H       -4.200986021     -1.246707937     -0.636315426
H       -4.200826021     -1.246578937      1.122345574
H       -4.628523021      1.245611063     -0.645588426
H       -5.915770021      0.380138063      0.243093574
H       -4.628323021      1.245750063      1.131348574
Li      -0.226873598     -0.075732138      2.381070614
