22
LiC8H11O2
C        1.466057501      0.053816099      1.740528705
C        1.330790080      0.018885546      0.213387156
C        0.549947930      1.242474363     -0.273665279
C       -0.940388119      1.264349684      0.116926901
C       -1.573178938      0.006318630      0.294982967
H       -2.639999938      0.006320630      0.530833967
O       -1.480600083      2.373042780      0.212259546
C        2.732387464      0.012024097     -0.402217614
C        0.562220250     -1.232990372     -0.218130758
C       -0.927911532     -1.252097189      0.173382716
O       -1.457133687     -2.360700272      0.318444689
H        0.474580805      0.059531078      2.214490460
H        2.020294667     -0.828728039      2.100415941
H        2.011437597      0.957060695      2.060354261
H        0.992098031      2.180730679      0.100930784
H        0.598771339      1.285333026     -1.377949790
H        3.304162715     -0.871034992     -0.071125790
H        2.675822399     -0.012928874     -1.502098494
H        3.295310115      0.914664829     -0.111183534
H        0.611709711     -1.324842174     -1.319393424
H        1.013564377     -2.149076738      0.198063826
Li      -2.639505401     -0.043583109     -1.693611182
