21
LiC6NH13
C       -1.945862464      0.136698002     -0.471133869
C       -0.638683464     -0.039904998      0.291600131
C       -0.924717464     -0.429586998      1.750156131
N        0.214756536     -1.011162998     -0.397236869
C        1.581733536     -0.847300998      0.086901131
C        1.682374536      0.655507002      0.444035131
C        0.260798536      1.204217002      0.228821131
H       -2.553611464      0.942052002     -0.032430869
H       -1.733780464      0.375710002     -1.522173869
H       -2.542268464     -0.788772998     -0.443084869
H       -1.459034464     -1.392006998      1.791501131
H        0.005280536     -0.531559998      2.330431131
H       -1.550951464      0.325894002      2.248060131
H       -0.128996464     -1.963715998     -0.298934869
H        1.809363536     -1.461981998      0.978836131
H        2.301212536     -1.139071998     -0.693074869
H        2.006483536      0.783468002      1.486137131
H        2.414727536      1.178596002     -0.184175869
H        0.170660536      1.650257002     -0.772354869
H       -0.027763464      1.965808002      0.967365131
Li       0.177754124     -0.644627589     -2.443336480
