11
LiC2H6SO
C        0.265969715     -0.651261956      1.419757665
S        0.267315947      0.562060490      0.066311901
C        0.262372666     -0.649660489     -1.288559473
O       -1.101443424      1.173583329      0.068491420
H        1.189275734     -1.245251364      1.412373136
H        0.192012278     -0.072759086      2.348516949
H       -0.625852912     -1.281333012      1.303783444
H       -0.629139743     -1.279869659     -1.170961940
H        0.185949342     -0.070059763     -2.216434226
H        1.185694111     -1.243656764     -1.284330014
Li      -0.925386860      3.156764093      0.059595260
