11
LiC3NH4O2
O        2.072456441      0.022381470     -0.106881770
C        0.860086096      0.159675808     -0.092032385
N        0.078419433      1.208552979      0.053401252
C       -1.278243567      0.793783979     -0.138546748
C       -1.237412176     -0.742819816      0.016605401
O        0.086384019     -1.062256901     -0.269053094
H       -1.983729960      1.250111386      0.585120200
H       -1.674790533      1.062604877     -1.148449486
H       -1.498089824     -1.037773968      1.056881605
H       -1.925849949     -1.276859264     -0.663759121
Li       0.713826705      3.168439259      0.331509804
