36
LiPbGeC9H24
C        3.650708808     -1.598149904      1.044053515
Ge       3.654921344      0.007522416     -0.092176465
C        3.660793979      1.608447295      1.050725962
C        5.255960264      0.004858696     -1.231958005
C        2.036886924      0.014960651     -1.221051173
C        0.728171164      0.017405805     -0.422300974
C       -0.521835257      0.023170904     -1.299401808
Pb      -2.404402377      0.026497865     -0.060887955
C       -2.389579768      1.852657970      1.251693669
C       -4.251828373      0.034984715     -1.338358388
C       -2.401084286     -1.805203910      1.244029416
H        2.779853743     -1.605334235      1.715136464
H        3.618926582     -2.510768989      0.431392399
H        4.557265911     -1.635492529      1.665205468
H        4.567558721      1.637501202      1.672016113
H        3.634760812      2.523791212      0.441869430
H        2.789991496      1.618315848      1.721843923
H        5.272800099     -0.883929507     -1.878958896
H        5.278399891      0.896209827     -1.875252295
H        6.170455667      0.000711125     -0.621586663
H        2.071573820      0.898098483     -1.881512105
H        2.066031604     -0.865616975     -1.885190065
H        0.707519565     -0.864279172      0.243393330
H        0.713055334      0.896412279      0.247073887
H       -0.539506422      0.911361357     -1.949466816
H       -0.545082534     -0.862163998     -1.953176470
H       -2.398785335      2.756722052      0.629515706
H       -3.275175033      1.851039499      1.899807182
H       -1.486840500      1.852972654      1.876141555
H       -4.266785515     -0.858499241     -1.975109341
H       -5.141149848      0.036431127     -0.695526404
H       -4.261159474      0.931208975     -1.971353512
H       -1.498373074     -1.813815160      1.868457455
H       -3.286660407     -1.800730425      1.892155792
H       -2.415969282     -2.706575931      0.618068440
Li       8.158331386     -0.008304617      0.705202259
