22
LiSiC8H11Cl
C        3.143064764     -1.081313489      1.529294931
Si       2.428338644     -0.357813860     -0.052444572
H        2.694819955      1.108800484     -0.109777818
C        3.180435046     -1.208330443     -1.550865943
C        0.554788970     -0.575899641     -0.064000295
C       -0.314761887      0.523559588     -0.085786201
C       -1.699441086      0.360772002     -0.086891925
C       -2.229033715     -0.926608323     -0.066209066
Cl      -3.953790782     -1.143365604     -0.064192747
C       -1.396578395     -2.044737334     -0.045732557
C       -0.016708879     -1.858058951     -0.044945360
H        4.236382125     -0.964667871      1.559190567
H        2.718199844     -0.586332564      2.414120768
H        2.914263610     -2.155587437      1.599251033
H        2.958837571     -2.286289752     -1.535500226
H        2.774430360     -0.792054880     -2.483888720
H        4.273697609     -1.088118750     -1.565275804
H        0.091975599      1.537863205     -0.102961695
H       -2.370647805      1.219622409     -0.102714517
H       -1.833854474     -3.043243336     -0.029541078
H        0.624864241     -2.744424755     -0.029217075
Li       3.121767545      3.458561741     -0.201635259
