31
LiSiC11H16O2
C       -1.328409164      2.911181093     -0.121985425
C       -0.898244142      1.669924244      0.105505102
O        0.134395477      1.442734488      0.980491667
C        1.171512153      0.648931033      0.568026544
C        1.498731052      0.483088903     -0.779039319
C        2.557147565     -0.355840886     -1.121342253
C        3.288904202     -1.019777080     -0.136916833
C        2.962396315     -0.830237301      1.206394030
C        1.904947875      0.002697304      1.563699822
O       -1.416290865      0.572827261     -0.454009274
Si      -1.845028796     -0.916241321      0.268012976
C       -3.548947248     -1.279907628     -0.404907324
C       -0.625431651     -2.220406464     -0.282304858
C       -1.867043094     -0.697992322      2.125462850
H       -2.205655164      3.069754093     -0.744120425
H       -0.807925164      3.748580093      0.335543575
H        0.916162510      0.994578985     -1.546264092
H        2.809298884     -0.492491772     -2.174143093
H        4.113090210     -1.677252368     -0.414827368
H        3.533313258     -1.337063094      1.985957981
H        1.630768585      0.167580616      2.606453663
H       -3.530961995     -1.305480467     -1.504171832
H       -3.917848463     -2.252211826     -0.045665822
H       -4.263114124     -0.503698342     -0.093819725
H        0.372204895     -2.065904366      0.155527346
H       -0.983903064     -3.217607787      0.017058837
H       -0.522299476     -2.211511562     -1.377807447
H       -2.451403687      0.191834083      2.404924482
H       -2.327660077     -1.574615282      2.605618759
H       -0.850216023     -0.577988318      2.524246062
Li      -0.440403885      3.653027843     -2.059808695
