24
LiC7H14O2
C       -3.099126457     -0.100439268     -0.903904564
C       -1.949628211     -1.087805991     -0.756684361
C       -0.694024900     -0.425639184     -0.224277982
O        0.382425765     -1.328421254     -0.124635840
C        1.300977686     -1.029978414     -1.160969065
H        0.969355861     -1.509152733     -2.102284414
C        2.676846120     -1.530885119     -0.787851928
C        1.110852143      0.485493464     -1.308082149
H        1.324316933      0.820923408     -2.333821119
C        1.880373868      1.321051505     -0.298085365
O       -0.287134093      0.600198546     -1.105867169
H       -3.354505806      0.355025929      0.065052690
H       -2.818644297      0.708072957     -1.592307263
H       -4.001090139     -0.592203138     -1.291847195
H       -2.211833687     -1.906467300     -0.069379384
H       -1.697016757     -1.542641203     -1.727781257
H       -0.875238916     -0.008828440      0.785618785
H        2.661102735     -2.623516412     -0.682491987
H        3.407151245     -1.267798568     -1.566429833
H        3.000863699     -1.099540643      0.168637621
H        2.959735870      1.309058236     -0.506263756
H        1.527011176      2.359801396     -0.340048385
H        1.716313628      0.937411037      0.719986414
Li      -1.266316372      0.890689647      2.965074138
