41
LiC12PH27
C       -2.325534523      4.132193847      0.112424421
C       -1.370196523      3.159687847      0.793838421
C       -1.007494523      1.968400847     -0.088855579
C       -0.043807523      0.993597847      0.585706421
P        0.367218477     -0.497233153     -0.462816579
C        1.912566477     -1.060872153      0.413021421
C        3.162681477     -0.295299153     -0.012638579
C        4.430251477     -0.776803153      0.688921421
C        5.674152477     -0.008812153      0.257705421
C       -0.808866523     -1.742526153      0.273114421
C       -2.282579523     -1.400617153      0.070030421
C       -3.223718523     -2.511529153      0.530781421
C       -4.694134523     -2.150610153      0.356685421
H       -2.576356523      4.980791847      0.764136421
H       -1.883702523      4.535932847     -0.811058579
H       -3.265375523      3.630304847     -0.163174579
H       -0.445736523      3.685520847      1.086743421
H       -1.818721523      2.789667847      1.731436421
H       -1.931011523      1.442076847     -0.385231579
H       -0.556727523      2.327871847     -1.029442579
H        0.905805477      1.512361847      0.799472421
H       -0.442777523      0.658080847      1.559983421
H        1.766439477     -0.988624153      1.505333421
H        2.036344477     -2.131853153      0.179860421
H        3.289822477     -0.384300153     -1.104888579
H        3.029854477      0.782697847      0.187900421
H        4.295077477     -0.687945153      1.779911421
H        4.565845477     -1.852428153      0.486308421
H        5.570026477      1.064549847      0.477034421
H        6.574200477     -0.371216153      0.773579421
H        5.842896477     -0.110073153     -0.824918579
H       -0.584697523     -2.709865153     -0.207715579
H       -0.593566523     -1.861767153      1.349801421
H       -2.526494523     -0.476462153      0.622565421
H       -2.470583523     -1.180285153     -0.995664579
H       -2.994642523     -3.432175153     -0.031462579
H       -3.017175523     -2.741519153      1.589467421
H       -4.951293523     -1.253201153      0.939670421
H       -4.923808523     -1.937168153     -0.698141579
H       -5.353997523     -2.965217153      0.686135421
Li       0.401966292     -0.219712243     -2.756728858
