22
LiC10H9O2
O       -0.622085997     -1.759107054     -0.405094376
C       -0.471176997     -0.543205054     -0.263135376
C        0.989708003     -0.055298054     -0.211900376
C        1.972451003     -1.022024054      0.034139624
C        3.322020003     -0.682176054      0.093240624
C        3.721714003      0.639601946     -0.113185376
C        2.755935003      1.609692946     -0.382072376
C        1.404462003      1.264520946     -0.429329376
C       -1.465087997      0.457218946     -0.113333376
H       -1.140457997      1.474850946      0.100278624
C       -2.875319997      0.227491946     -0.149390376
C       -3.754466997      1.472188946      0.099216624
O       -3.468136997     -0.827706054     -0.357708376
H        1.622818003     -2.047707054      0.164108624
H        4.071013003     -1.451926054      0.296041624
H        4.779323003      0.910472946     -0.073482376
H        3.057843003      2.644326946     -0.562691376
H        0.659941003      2.027009946     -0.661613376
H       -3.187093997      2.402562946      0.241765624
H       -4.441460997      1.589212946     -0.752894376
H       -4.377674997      1.287587946      0.988029624
Li      -1.213442251      1.549398984     -2.072380640
