47
LiSi4C11H30O
C        0.254187690      3.062659099      0.090103351
Si      -0.792942951      1.586909795     -0.454963021
C       -2.569113545      1.835124427      0.140802597
C       -0.763882561      1.463187421     -2.343438632
Si       0.062166728     -0.424777477      0.417909969
O       -0.282836190     -0.498631432      2.103723286
C       -1.527736877     -0.657412389      2.593628346
C       -1.817366345     -0.650270617      3.895155088
Si      -0.921189615     -2.283799786     -0.648910170
C        0.034253446     -2.610526746     -2.250016240
C       -0.796196947     -3.771132307      0.506957281
C       -2.738615422     -1.990366390     -1.091166357
Si       2.402424610     -0.531743154      0.366068634
C        3.050632733      0.647717568      1.687499027
C        2.959860712     -2.289977378      0.770874427
C        3.024556925     -0.029627149     -1.346368954
H        0.310800698      3.116759923      1.187695352
H        1.280514006      2.990286042     -0.301708375
H       -0.181308901      4.005412653     -0.276590438
H       -2.990374144      2.761873584     -0.279683508
H       -3.213757732      0.997359376     -0.165289271
H       -2.606101669      1.910455344      1.238183899
H        0.258760037      1.302575951     -2.717601307
H       -1.389955702      0.630285089     -2.698662981
H       -1.147835330      2.390022617     -2.797681005
H       -2.320654187     -0.800904035      1.842776420
H       -1.031665345     -0.506074617      4.637669088
H       -2.845895345     -0.790605617      4.222658088
H        1.084849166     -2.867947141     -2.044763988
H       -0.416996285     -3.448512336     -2.804025843
H        0.022735974     -1.726706491     -2.906616749
H       -1.318369793     -3.571742433      1.455098960
H       -1.247737484     -4.664268561      0.047759516
H        0.253431333     -3.999572330      0.743934490
H       -2.854940401     -1.124604478     -1.761197562
H       -3.150537489     -2.872369117     -1.606583831
H       -3.350893012     -1.810493981     -0.194554231
H        2.598132564      0.395831769      2.658029509
H        4.145305665      0.578839826      1.782593791
H        2.788273452      1.690047561      1.453656051
H        2.622142178     -3.005000484      0.005582270
H        4.057554037     -2.350075061      0.832899183
H        2.543361844     -2.605382840      1.739598493
H        2.749127844      1.011063363     -1.576908870
H        4.121707184     -0.106321546     -1.398696147
H        2.602093176     -0.676942395     -2.129855013
Li      -1.688472805     -2.759419737      4.688203286
