65
LiSiC28NH33O
C        1.455599101      3.145042427     -2.122951278
Si       0.447905104      2.133270467     -0.909805204
C        0.454739917      2.961252786      0.775414911
C       -1.308626465      1.963599358     -1.544267552
O        1.195496589      0.632200053     -0.904227332
C        1.584066901     -0.490828347     -0.152097636
C        1.418343614     -0.190097896      1.366073254
H        1.795034457      0.847195816      1.457478857
C        2.231024035     -1.039366917      2.353849198
C        1.506849358     -0.785613073      3.677109336
C        0.031281042     -0.729017239      3.275851453
N        0.059217130     -0.276867802      1.897456660
C       -1.082141859     -0.244638241      1.152117874
C       -2.348206458     -0.424821067      1.593742866
C       -3.480556458     -0.500591067      0.660842866
C       -4.770085458     -0.122065067      1.069259866
C       -5.846769458     -0.165742067      0.187513866
C       -5.662831458     -0.591879067     -1.127915134
C       -4.392018458     -0.991278067     -1.543581134
C       -3.317261458     -0.960088067     -0.659821134
C        0.794511157     -1.699173940     -0.680708909
C        0.560187877     -1.753673432     -2.060264786
C       -0.153620913     -2.807953597     -2.624846333
C       -0.648929319     -3.831829980     -1.817492046
C       -0.415959253     -3.791251327     -0.445443790
C        0.302404347     -2.735524545      0.118533811
C        3.089422567     -0.693236786     -0.387191365
C        3.913008374      0.433640852     -0.474869829
C        5.293629768      0.297103381     -0.601293302
C        5.870550021     -0.971602779     -0.648386596
C        5.055298269     -2.099122815     -0.572371181
C        3.673411772     -1.961734643     -0.442928667
H        2.487402201      3.289873266     -1.769895286
H        1.501706590      2.636766098     -3.097485184
H        1.005150135      4.137661877     -2.274513671
H       -0.071975133      3.924897357      0.690734403
H       -0.067385083      2.357846187      1.532525119
H        1.476289954      3.168332280      1.128873720
H       -1.358755747      1.209786778     -2.345286236
H       -2.018825173      1.667225087     -0.757968119
H       -1.651690760      2.922926646     -1.961789700
H        2.200398372     -2.104565657      2.080968504
H        3.286272236     -0.739484982      2.371158086
H        1.706701346     -1.550918291      4.437543532
H        1.819517431      0.186371060      4.087022166
H       -0.462462406     -1.720298706      3.331447198
H       -0.554871986     -0.045393715      3.912391533
H       -0.924754022     -0.093495965      0.084332269
H       -2.563121458     -0.509874067      2.661344866
H       -4.919656458      0.225776933      2.093983866
H       -6.837344458      0.140851933      0.528652866
H       -6.505744458     -0.624749067     -1.819689134
H       -4.238249458     -1.351406067     -2.562694134
H       -2.339302458     -1.325518067     -0.987222134
H        0.939495756     -0.946217159     -2.687432496
H       -0.327315068     -2.826889796     -3.701964762
H       -1.218158995     -4.653043097     -2.255322492
H       -0.806956782     -4.577891989      0.201235883
H        0.435571328     -2.715176752      1.199133402
H        3.461433793      1.426522413     -0.453757208
H        5.921723325      1.187008734     -0.667643918
H        6.951170918     -1.080739145     -0.751851112
H        5.494930380     -3.096611678     -0.621235979
H        3.044289259     -2.852321305     -0.394969079
Li      -3.316678711      1.592006420      1.891261576
