35
LiC14H15O5
O       -1.802092777      2.385607254     -0.914935088
C       -2.001809363      1.301202057     -0.396333857
C       -1.326749463      0.727254446      0.711123724
C       -0.146371048      1.448919073      1.297010892
C        1.158122465      0.959792919      0.709408679
C        1.706643825      1.556751791     -0.436041440
C        2.871370290      1.068378819     -1.015804951
C        3.517141206     -0.044476480     -0.465562693
O        4.660091657     -0.456049475     -1.095262143
C        5.303770104     -1.586181440     -0.592879617
C        2.976319715     -0.665717081      0.662469369
C        1.804612715     -0.160510677      1.235349350
C       -1.717085463     -0.505756554      1.290304724
O       -2.763628620     -1.167895011      0.649936554
C       -2.969936833     -0.857709903     -0.706807797
C       -1.866173503     -1.483715115     -1.564669404
C       -4.338304733     -1.408588882     -1.064243420
O       -3.032871271      0.528748198     -0.932787614
O       -1.256691201     -1.039590188      2.286191316
H       -0.255735103      2.524704743      1.096315100
H       -0.129898229      1.289015937      2.386137053
H        1.182348064      2.405679880     -0.882023178
H        3.304441244      1.526871109     -1.906304584
H        4.652577770     -2.477684584     -0.621036415
H        6.180259402     -1.765821550     -1.228342231
H        5.641964102     -1.439873662      0.448525170
H        3.447702740     -1.544565854      1.102217333
H        1.351321423     -0.662907383      2.093428234
H       -1.850079724     -2.571461613     -1.409772401
H       -2.053463637     -1.263972430     -2.624869233
H       -0.888911337     -1.069312661     -1.282282412
H       -5.083913136     -0.926031913     -0.419402517
H       -4.568570982     -1.186409133     -2.114746544
H       -4.360793442     -2.493618900     -0.896282691
Li      -2.034898007      1.969964238      2.457046693
