42
LiGeC12H28
H       -1.683540204      1.182656629     -0.060199639
Ge      -0.928763502     -0.174961241     -0.146682837
C        1.012578998      0.161952826     -0.190896365
C        1.831706121     -1.126937427     -0.276165767
C        3.340350818     -0.891770384     -0.311765428
C        4.144035051     -2.183819311     -0.396705402
C       -1.358944452     -1.265012212      1.437903164
C       -0.765120507     -0.716453840      2.735951920
C       -1.143318478     -1.529251245      3.972622149
C       -0.530760133     -0.982601297      5.256409905
C       -1.458724337     -1.114471242     -1.796119722
C       -0.944305484     -0.446111972     -3.071714827
C       -1.400186230     -1.141706993     -4.352865440
C       -0.866196740     -0.476517805     -5.615617776
H        1.241807623      0.814862904     -1.049533486
H        1.296060780      0.733009503      0.708896605
H        1.592740708     -1.780936768      0.582427604
H        1.538505603     -1.699110603     -1.175417399
H        3.579945179     -0.242917150     -1.170890175
H        3.634197042     -0.324768599      0.587497981
H        5.225375288     -1.989211082     -0.421009340
H        3.939176522     -2.832894151      0.468216020
H        3.884501519     -2.750404298     -1.303886767
H       -2.455610534     -1.339066663      1.524988833
H       -0.996647476     -2.292113182      1.261320544
H        0.336373303     -0.680933218      2.656137919
H       -1.086696537      0.330279104      2.884397781
H       -2.242319797     -1.553248984      4.061636227
H       -0.828293207     -2.575639149      3.821838485
H       -0.851091932      0.055124322      5.435026744
H       -0.823133697     -1.578894891      6.132078061
H        0.568341411     -0.984182222      5.200466376
H       -1.089193627     -2.152485967     -1.738245663
H       -2.558878119     -1.183263692     -1.822075917
H       -1.271405498      0.608955177     -3.102309992
H        0.160109211     -0.414998179     -3.056858339
H       -1.079479745     -2.196666319     -4.319512018
H       -2.502646108     -1.160486698     -4.375948696
H        0.234255611     -0.480136734     -5.627779524
H       -1.213589154     -0.989802772     -6.523197041
H       -1.193936630      0.572384629     -5.677108811
Li      -2.843071206      3.268306642      0.072660737
