22
LiC10NH9O
C       -3.921165068      0.160439722      1.111484708
O       -2.822362694     -0.704191448      0.989049427
C       -1.599389567     -0.179352359      0.754133040
C       -1.365025133      1.217841999      0.622581340
C       -0.095125223      1.686069202      0.383740500
C        1.004045045      0.799009397      0.263257436
N        2.240676801      1.314793520      0.026686204
C        3.244336263      0.485785135     -0.082048503
C        3.120718223     -0.927324444      0.032471834
C        1.884579777     -1.466434266      0.270513624
C        0.762797792     -0.600242940      0.396071418
C       -0.547431493     -1.067405248      0.641431009
H       -3.797878529      0.857874124      1.956532742
H       -4.087473239      0.740214777      0.188486904
H       -4.796551272     -0.471556948      1.296914220
H       -2.187789433      1.925794734      0.709822010
H        0.106422145      2.752593345      0.279613234
H        4.230106183      0.923998278     -0.272436846
H        4.004368865     -1.557985901     -0.069882348
H        1.742648384     -2.545170950      0.365709054
H       -0.748030724     -2.134587530      0.745446119
Li       2.503715431      3.369206496     -0.153422099
