23
LiC7H10O4Cl
Cl       1.652556682      0.394766774      0.007837703
C       -0.112769318      0.394793774      0.007837703
C       -0.799770318      0.394798774      1.256488703
O        0.065495682      0.394715774      2.341465703
C       -0.563334318      0.394657774      3.594883703
C        0.524109682      0.394665774      4.650394703
O       -2.000404318      0.394741774      1.464695703
C       -0.799770318      0.394798774     -1.240813297
O        0.065495682      0.394715774     -2.325790297
C       -0.563334318      0.394657774     -3.579208297
C        0.524109682      0.394665774     -4.634719297
O       -2.000404318      0.394741774     -1.449020297
H       -1.221972318      1.274361774      3.696930703
H       -1.221910318     -0.485101226      3.696884703
H        0.091799682      0.394611774      5.662171703
H        1.162861682     -0.493055226      4.538513703
H        1.162783682      1.282450774      4.538574703
H       -1.221910318     -0.485101226     -3.681209297
H       -1.221972318      1.274361774     -3.681255297
H        0.091799682      0.394611774     -5.646496297
H        1.162783682      1.282450774     -4.522899297
H        1.162861682     -0.493055226     -4.522838297
Li       0.618803730     -1.739931777     -0.034549774
