16
LiC8NH4O2
O       -1.590672214      2.308570349      0.215300886
C       -1.252765214      1.134464349      0.214970886
N       -2.032389214      0.023802349      0.214986886
C       -1.252764214     -1.086859651      0.214911886
O       -1.590674214     -2.260965651      0.214819886
C        0.222973786     -0.668833651      0.215011886
C        1.403719352     -1.391816513      0.173470951
C        2.606564943     -0.680477782      0.298316100
C        2.603729395      0.709267140      0.458675963
C        1.397972347      1.425497058      0.498548356
C        0.220166309      0.707304621      0.373792630
H        1.383112191     -2.476819019      0.047478173
H        3.560387524     -1.213591864      0.270640397
H        3.555385330      1.238510442      0.553579093
H        1.372939942      2.510592094      0.622932502
Li      -4.111387802      0.026224634      0.214911970
