29
LiC9NH15O3
O       -2.096199457     -1.790334085     -0.039344294
C       -1.908453457     -0.603955085     -0.175690294
C       -0.606337457      0.058120915     -0.291445294
C        0.482863303     -0.685650019      0.017068431
N        1.771586705     -0.282589763      0.146867150
C        2.168917799      1.074550265     -0.176573355
C        3.413360589      1.451548911      0.617555390
O        4.438157391      0.505276615      0.454128413
C        4.036156271     -0.764435496      0.901147618
C        2.845792924     -1.261483381      0.096560424
O       -2.921372457      0.280586915     -0.244360294
C       -4.231227457     -0.267355085     -0.152150294
C       -5.217631457      0.873073915     -0.253816294
H       -0.594920457      1.138803915     -0.417507294
H        0.311320216     -1.751262002      0.206501135
H        2.367104374      1.168877575     -1.261585629
H        1.351623716      1.760345951      0.082571611
H        3.802791379      2.419273373      0.275534229
H        3.145664766      1.537892422      1.688551952
H        4.891498652     -1.441991425      0.780306102
H        3.763442295     -0.723498699      1.973620555
H        2.477588856     -2.215363466      0.499093081
H        3.165321320     -1.427790733     -0.949978995
H       -4.371332457     -1.007189085     -0.955181294
H       -4.328505457     -0.811809085      0.799749706
H       -6.245919457      0.493646915     -0.183638294
H       -5.055969457      1.596641915      0.556766706
H       -5.103002457      1.397812915     -1.212003294
Li      -1.494743845      0.884686919      1.611597462
