18
LiC7H10
C        0.790101887      1.564583909     -0.059929501
C        1.652183218      0.541366902      0.056803723
C        1.352739832     -0.930189156      0.059619293
C        0.114963388     -1.361683092     -0.723919322
C       -1.223125775     -0.943519564     -0.118176143
C       -1.534823757      0.524783478     -0.164344125
C       -0.675554880      1.556976423     -0.161904438
H        1.228456144      2.566598275     -0.048494246
H        2.709353721      0.805067027      0.161439324
H        2.229838123     -1.454586206     -0.351450498
H        1.271721650     -1.281338732      1.104516727
H        0.183775397     -0.967562843     -1.750740375
H        0.126349743     -2.459014081     -0.806052276
H       -2.029933019     -1.477289595     -0.644864039
H       -1.282451725     -1.293725685      0.928491065
H       -2.598477757      0.782919478     -0.155231125
H       -1.121572100      2.554388619     -0.212502413
Li      -1.902596351     -0.120119368     -2.295750385
