18
LiC5N3H9
C       -2.222998694     -0.061982356     -0.128450416
C       -1.332624999      1.224070663     -0.129052043
N       -0.009439271      0.671759079     -0.132193907
C        1.340957017      1.173346820     -0.134345550
C        2.135061297     -0.187426292     -0.137225557
N        1.157122326     -1.280433770     -0.136469040
C        0.021747390     -0.701240979     -0.133680481
N       -1.264464394     -1.152640500     -0.131688148
H       -2.871869292     -0.088356798      0.761297394
H       -2.875743944     -0.086508637     -1.015409458
H       -1.535460220      1.847314462     -1.017603458
H       -1.531912907      1.845680993      0.761443263
H        1.557727350      1.787863974     -1.025391594
H        1.561210346      1.786127100      0.757042158
H        2.788395345     -0.256415232     -1.021381369
H        2.791748206     -0.258194196      0.744302557
H       -1.501345463     -2.131808966     -0.131946340
Li       1.552826383     -3.321426418     -0.139351719
