18
LiC7NH9
N        2.227231236     -0.591939893     -0.342101017
C        1.407244376      0.497063254      0.158396402
C       -0.071239974      0.195554455      0.031897202
C       -0.537668285     -1.121968831      0.070549141
C       -1.903291744     -1.391417406     -0.010343471
C       -2.820747322     -0.348187692     -0.128956553
C       -2.363452950      0.968465595     -0.171288076
C       -0.997676886      1.235605872     -0.095204282
H        2.119196236     -0.689022893     -1.350407017
Li       4.225825963     -0.164991153      0.039441762
H        1.642167564      0.629138668      1.228304725
H        1.601127341      1.477899992     -0.319407186
H        0.190997561     -1.928714643      0.159772858
H       -2.254126207     -2.424616212      0.020024559
H       -3.889330008     -0.559417126     -0.193274201
H       -3.073395885      1.791313228     -0.271142006
H       -0.642576513      2.268576900     -0.138361021
H        1.946291521     -1.428008287      0.129134079
