14
LiC5H8
C        2.304883951     -0.142243671     -0.402915488
C        1.171769853      0.503119264     -0.104809313
C       -0.122565543     -0.148487980      0.078729436
C       -1.250838274      0.510066729      0.377360531
C       -2.593411152     -0.141213317      0.570530671
H        2.332035951     -1.235151671     -0.402924488
H        3.260562951      0.384038329     -0.402932488
H        1.186123371      1.591962670      0.015399274
H       -0.147262242     -1.238736386     -0.039586785
H       -1.193418484      1.598728013      0.489003227
H       -2.908911644     -0.678786372     -0.336525516
H       -2.565533636     -0.874270969      1.390972005
H       -3.369888127      0.596155573      0.808310999
Li       3.345768888     -0.723031900      1.513668082
