13
LiC4N2H6
C        2.024776219     -0.131990171     -0.392872713
C        0.532344427     -0.179030325     -0.386925389
N       -0.249702034      0.940896829     -0.390215711
H        0.079690179      1.896718523     -0.396842351
C       -1.562222593      0.533438563     -0.382974090
C       -1.506285335     -0.836781126     -0.375471359
N       -0.204229745     -1.262523355     -0.378029753
H        2.418882024      0.386570245      0.493598984
H        2.394701941     -1.162785314     -0.388434566
H        2.412102961      0.376463158     -1.288142458
H       -2.391619726      1.233154710     -0.383758078
H       -2.337736086     -1.537432134     -0.368372701
Li       0.465487400     -3.230681683     -0.369500845
