33
LiC17NH13O
O       -1.149202682     -1.669906673     -0.094856497
C       -1.558968682     -0.502137673     -0.149690497
C       -3.051499682     -0.263014673     -0.157518497
C       -3.865828682     -1.355411673     -0.475478497
C       -5.250994682     -1.222187673     -0.506922497
C       -5.842308682      0.005214327     -0.206614497
C       -5.039691682      1.094806327      0.129835503
C       -3.652601682      0.961940327      0.154337503
C       -0.732229682      0.645744327     -0.237624497
H       -1.142543682      1.640286327     -0.364948497
N        0.648569318      0.594051327     -0.243207497
C        1.330904318      1.807269327     -0.361201497
C        2.683103318      1.883403327     -0.374776497
C        3.483916318      0.708246327     -0.266294497
C        4.896165318      0.716985327     -0.271918497
C        5.594809318     -0.465632673     -0.162201497
C        4.902271318     -1.694131673     -0.044013497
C        3.527133318     -1.727983673     -0.036623497
C        2.784780318     -0.521587673     -0.147748497
C        1.371660318     -0.539971673     -0.142471497
H       -3.376443682     -2.306312673     -0.689239497
H       -5.874277682     -2.080388673     -0.764037497
H       -6.928162682      0.111654327     -0.227034497
H       -5.497039682      2.053056327      0.381828503
H       -3.042955682      1.817652327      0.447876503
H        0.689999318      2.682740327     -0.437698497
H        3.152281318      2.863364327     -0.470942497
H        5.421240318      1.669637327     -0.364689497
H        6.685291318     -0.459039673     -0.166387497
H        5.467421318     -2.623282673      0.041695503
H        2.989214318     -2.672984673      0.054613503
H        0.787746318     -1.455507673     -0.062199497
Li      -0.244661412      1.361546250      1.846590893
