29
LiC12NH15
N        2.065243967      0.238993355     -0.071462593
C        0.727388124      0.474995487     -0.127903662
C       -0.247594730     -0.464145271     -0.083336236
C       -1.685903730     -0.184116271     -0.083232236
C       -2.589595730     -1.260346271     -0.124110236
C       -3.966564730     -1.055553271     -0.131619236
C       -4.486320730      0.237202729     -0.097824236
C       -3.605082730      1.318910729     -0.050903236
C       -2.229627730      1.113530729     -0.039191236
C        3.082783904      1.273705219     -0.137883312
C        4.316850320      0.569104944      0.424336270
C        4.130899151     -0.869207013     -0.068267819
C        2.620530908     -1.093480130      0.058819141
H        0.469362517      1.534839371     -0.216240728
H        0.031619270     -1.516261271      0.007076764
H       -2.194684730     -2.278448271     -0.155112236
H       -4.638918730     -1.914837271     -0.164726236
H       -5.564495730      0.402033729     -0.103128236
H       -3.995018730      2.337965729     -0.015232236
H       -1.568649730      1.980394729      0.016278764
H        3.260727453      1.607872115     -1.178039218
H        2.787187695      2.155039589      0.451602320
H        5.258696182      1.025242061      0.092850372
H        4.289238238      0.597121926      1.524271923
H        4.429889472     -0.941762921     -1.124973027
H        4.717370322     -1.603803615      0.498067226
H        2.340895076     -1.534466753      1.034630639
H        2.227848717     -1.765555346     -0.723569981
Li      -0.888981451     -0.756292932      2.060800378
