23
LiC9H11O2
O        3.102545608      0.853611411      0.003464518
O        1.662468447      0.946181661      0.003927882
C        1.117428471     -0.335141846      0.004100216
C        1.585253259     -1.079632189     -1.259044207
C        1.586014258     -1.079626488      1.266966682
C       -0.397860046     -0.189222148      0.004556695
C       -0.985296735      1.081209817      0.004720521
C       -2.374031472      1.222966794      0.005138385
C       -3.202362543      0.100890707      0.005400872
C       -2.625956357     -1.170513056      0.005240815
C       -1.238985949     -1.309966210      0.004823613
H        2.669076039     -0.892792472     -1.278859508
H        1.352471740     -2.156487835     -1.243263444
H        1.125588531     -0.621248383     -2.148247435
H        1.126881722     -0.621238174      2.156443376
H        1.353225943     -2.156482360      1.251329445
H        2.669848385     -0.892781705      1.286131379
H       -0.313749907      1.939283338      0.004510748
H       -2.814970388      2.223203701      0.005260492
H       -4.288887743      0.214605369      0.005728158
H       -3.261927892     -2.059348704      0.005442634
H       -0.795936720     -2.309251610      0.004701802
Li       3.870072321      2.689371415     -0.067026296
