23
LiC7H11O4
H        0.400767901     -1.492903260      0.002158869
C        0.400786901     -0.406142260      0.002158869
C        0.400797901      0.262560740      1.248885869
O        0.400785901     -0.668384260      2.304010869
C        0.400797901     -0.105516260      3.584846869
C        0.400797901     -1.242892260      4.588247869
O        0.400820901      1.447772740      1.535016869
C        0.400797901      0.262560740     -1.244568131
O        0.400785901     -0.668384260     -2.299693131
C        0.400797901     -0.105516260     -3.580529131
C        0.400797901     -1.242892260     -4.583930131
O        0.400820901      1.447772740     -1.530699131
H        1.280004901      0.547908740      3.725198869
H       -0.478400099      0.547918740      3.725211869
H        0.400805901     -0.862035260      5.620751869
H       -0.487293099     -1.875716260      4.446093869
H        1.288879901     -1.875725260      4.446082869
H       -0.478400099      0.547918740     -3.720894131
H        1.280004901      0.547908740     -3.720881131
H        0.400805901     -0.862035260     -5.616434131
H        1.288879901     -1.875725260     -4.441765131
H       -0.487293099     -1.875716260     -4.441776131
Li       2.538733622     -1.129398925      0.013674733
