32
LiC14NH12O4
O       -1.241750123     -0.248561647      2.464981628
C       -1.611289171     -0.148523574      1.307239395
C       -1.122397171     -0.860585574      0.183035395
C        0.062075101     -1.765229969      0.369578951
C        1.331722388     -0.975770103      0.184240585
C        1.902632422     -0.285433312      1.265121263
C        3.033988417      0.500306943      1.088989718
C        3.614860302      0.615903868     -0.183917722
C        4.797699183      1.414877374     -0.368985333
N        5.751044937      2.053251592     -0.516913304
C        3.035964550     -0.048779036     -1.276328903
C        1.904538559     -0.832169385     -1.088981208
C       -1.663666898     -0.711423464     -1.119656236
O       -2.689582820      0.221589557     -1.234013395
C       -2.725409389      1.247765497     -0.270440060
C       -1.596967931      2.250143991     -0.525828814
C       -4.091626556      1.895421845     -0.392047154
O       -2.640320250      0.749812744      1.044399269
O       -1.345217232     -1.314940971     -2.129330471
H        0.039644084     -2.191489211      1.383324381
H        0.017917413     -2.575558366     -0.372177137
H        1.412674175     -0.356587042      2.238912923
H        3.478157250      1.033333835      1.931122094
H        3.480847570      0.058886831     -2.266868896
H        1.420673780     -1.328248577     -1.933418156
H       -1.689258067      2.659506401     -1.541152043
H       -1.654953520      3.065525094      0.208147965
H       -0.621047953      1.754776315     -0.429662792
H       -4.855770016      1.129576215     -0.207225426
H       -4.193098048      2.696979060      0.351493775
H       -4.223493356      2.302740439     -1.403238711
Li      -1.878307094     -2.918690746      0.718621327
