25
LiSiC9H13Cl
C        1.729441847     -2.026962701      0.828663674
Si       2.453002997     -0.557355529     -0.090316409
H        2.626560051      0.587700786      0.851428994
C        4.110344854     -0.997470284     -0.862175371
C        1.245651121     -0.001263166     -1.452304534
C       -0.120475454      0.275697245     -0.892662669
C       -0.416377245      1.506944429     -0.291539235
C       -1.665194154      1.740443230      0.279092760
C       -2.648086054      0.752759015      0.270010356
C       -2.351149218     -0.471173198     -0.323841834
Cl      -3.561212077     -1.722415688     -0.349380910
C       -1.107336395     -0.717585642     -0.899299612
H        2.408039507     -2.363331902      1.626187563
H        0.763454633     -1.769215094      1.287226632
H        1.566620585     -2.873057829      0.143282163
H        3.998619665     -1.833873845     -1.568472244
H        4.535852616     -0.143517665     -1.409071815
H        4.834161369     -1.300261575     -0.091350947
H        1.659862927      0.897895423     -1.934512366
H        1.201279447     -0.791786120     -2.217907711
H        0.344742507      2.289969189     -0.272769232
H       -1.879455824      2.706100725      0.739769563
H       -3.630019260      0.918757376      0.712107922
H       -0.913013935     -1.689887665     -1.355400222
Li       2.904446227      2.421076692      2.359279139
