10
LiCNH4SO2
C       -2.221344880      0.127817745      0.000000000
S       -0.424024451     -0.022222584      0.000000000
N       -0.019915225      1.493064382      0.000000000
Li       2.053848329      1.640528696      0.000000000
O       -0.108568516     -0.787602218      1.233292000
O       -0.108568516     -0.787602218     -1.233292000
H       -2.524841235      0.669074707     -0.903310000
H       -2.617907059     -0.894904654      0.000000000
H       -2.524841235      0.669074707      0.903310000
H       -0.656901089      2.263939865      0.000000000
