8
LiC2H3O2
C        0.001685834     -1.640472000     -0.025962580
C        0.015832473     -0.068764053     -0.029196055
O        0.001629484      0.459751761      1.096955749
O        0.001661133      0.455113357     -1.157513479
H       -1.046748506     -1.985220554     -0.025268004
H        0.484140231     -2.040158831     -0.930640398
H        0.484114807     -2.036432819      0.880365769
Li      -0.009907168      2.435505269     -0.952586541
