15
LiC6NH7
C       -2.347860734      0.000511210     -0.166944750
C       -0.843743170      0.000548268     -0.186627998
C       -0.111275675     -1.189792191     -0.183236619
C        1.281973744     -1.135196063     -0.171700351
N        1.975689989      0.000415502     -0.165243891
C        1.282092150      1.136070937     -0.171631335
C       -0.111177181      1.190795809     -0.183249608
H       -2.715703260     -0.002986555      0.870654721
H       -2.752673902      0.894175461     -0.659754822
H       -2.752635665     -0.889913539     -0.665647805
H       -0.620467160     -2.155551872     -0.192519663
H        1.864787800     -2.061950428     -0.170050374
H        1.864983404      2.062777572     -0.170143350
H       -0.620278439      2.156599128     -0.192607640
Li       4.054630192      0.000317605     -0.149476083
