20
LiC9H10
C       -2.348084475      1.254965163     -0.341626898
C       -1.707175190      0.090451951     -0.176236664
C       -2.467747629     -1.183869527      0.085102569
C       -0.222625045     -0.004863286     -0.261823138
C        0.596982876      1.098254602      0.025338717
C        1.981975370      1.008069162     -0.069220253
C        2.585200376     -0.192325583     -0.446648571
C        1.787467332     -1.300741835     -0.719325120
C        0.399932817     -1.209080881     -0.620800218
H       -3.439106475      1.291623163     -0.330386898
H       -1.820958475      2.156728163     -0.657280898
H       -2.405638883     -1.866321036     -0.776751717
H       -2.055488567     -1.719797585      0.953274582
H       -3.528842108     -0.974396238      0.268836475
H        0.140711302      2.034085115      0.351499914
H        2.596049136      1.878998170      0.165738140
H        3.671438487     -0.263927124     -0.517619842
H        2.245901006     -2.247412905     -1.009897506
H       -0.204364793     -2.090043562     -0.840109236
Li      -2.498441141      2.300690514      1.652840540
