27
LiSiC8H16O
C       -1.837754040     -0.891935480      1.268506321
Si      -1.751100974      0.084365791     -0.327432065
O       -0.284295304      0.932697908     -0.387476377
C        0.961868494      0.427786334     -0.388433541
C        1.379190044     -0.848291833     -0.356801698
C        2.884267575     -0.920550070     -0.442125532
C        3.321205903      0.529115607     -0.133427459
C        2.107802829      1.402204483     -0.489724885
C       -1.896746489     -1.019941209     -1.833321850
C       -3.045494018      1.427580244     -0.357817355
H       -1.736693239     -0.216792106      2.131213109
H       -2.807273646     -1.406613858      1.350861986
H       -1.043349763     -1.648075968      1.336420438
H        0.733770044     -1.726992833     -0.330783698
H        3.324722703     -1.642428878      0.262279357
H        3.206428752     -1.232618087     -1.451805639
H        3.519550087      0.618054397      0.944754291
H        4.237217905      0.822598333     -0.662982155
H        2.156280746      1.800857050     -1.517888904
H        1.966041057      2.261949410      0.181204477
H       -2.896785417     -1.478217724     -1.873647473
H       -1.756996406     -0.429877901     -2.751261505
H       -1.152487129     -1.828263687     -1.833370095
H       -2.908994277      2.113436930      0.490805690
H       -2.974248121      2.015225091     -1.284590567
H       -4.058605214      1.003034990     -0.296742178
Li       1.790703443     -1.433971972      1.783685279
