12
LiC3H6O2
C       -0.021987161      1.229093644      0.812295018
C       -0.027662142      1.245910341     -0.739125463
O       -0.010486521     -0.118604732     -1.092315155
C       -0.509989150     -0.802596590      0.016245727
O       -0.002336646     -0.142755290      1.135689054
H        0.865111900      1.705728484      1.249453060
H       -0.923177077      1.718942956      1.219897356
H       -0.931770672      1.744408396     -1.129410914
H        0.856253210      1.731979480     -1.172326468
H       -1.622116498     -0.778630946      0.020573583
H       -0.152201622     -1.839708915      0.003695138
Li       0.627181660     -4.098893337     -0.023644326
