23
LiC8NH13
C       -2.661165048      0.689850755     -0.147522461
C       -1.433241678     -0.160935941     -0.166948993
C       -0.185279561      0.069678271     -0.716876133
C        0.273347928      1.309653362     -1.429034095
C        0.858302642      2.359749508     -0.480579885
C        0.629669062     -1.073029677     -0.423714934
C        2.057051844     -1.268699809     -0.836010400
C       -0.156208204     -1.953748521      0.284974079
N       -1.397242232     -1.392469092      0.432716575
H       -3.535868232      0.155342486     -0.549821528
H       -2.912523447      1.027453537      0.870477789
H       -2.505294516      1.584666008     -0.763166483
H        1.031210415      1.031873969     -2.179118631
H       -0.562263751      1.751273266     -1.995467493
H        0.099591088      2.690486929      0.244130580
H        1.697286253      1.939587892      0.093265763
H        1.222382030      3.242789589     -1.026041426
H        2.707181345     -0.468108354     -0.450235144
H        2.447164722     -2.224740034     -0.461005627
H        2.163491819     -1.272479594     -1.932246134
H       -0.062360204     -3.013312521      0.507857079
H       -2.178028292     -1.822425031      0.907400041
Li      -1.225508549     -3.314260449     -1.164043886
