33
LiC17NH13O
O       -1.549804889     -1.575160367     -1.672729234
C       -1.513818889     -0.341489367     -1.583127234
C       -2.827170889      0.407440633     -1.555414234
C       -3.941713889     -0.249131367     -2.088696234
C       -5.189362889      0.366999633     -2.099566234
C       -5.343070889      1.644886633     -1.560252234
C       -4.242888889      2.297723633     -1.005829234
C       -2.991693889      1.683517633     -1.003894234
C       -0.341911889      0.463741633     -1.544890234
H       -0.442369889      1.535904633     -1.533349234
N        0.946486111     -0.030288367     -1.545243234
C        2.052866111      0.848113633     -1.636243234
C        1.880863111      2.235767633     -1.844802234
C        2.971295111      3.076092633     -1.905683234
C        4.281000111      2.573576633     -1.763157234
C        4.468777111      1.225462633     -1.586496234
C        3.370691111      0.327561633     -1.529869234
C        3.580248111     -1.068813367     -1.391429234
C        2.482115111     -1.887539367     -1.378735234
C        1.188370111     -1.360938367     -1.455089234
H       -3.798105889     -1.254364367     -2.486759234
H       -6.048889889     -0.151996367     -2.527198234
H       -6.321488889      2.128060633     -1.562990234
H       -4.361124889      3.288197633     -0.563018234
H       -2.147778889      2.193504633     -0.535979234
H        0.893951111      2.665205633     -1.985415234
H        2.811770111      4.141510633     -2.074833234
H        5.135151111      3.249954633     -1.806243234
H        5.473134111      0.808872633     -1.491813234
H        4.595319111     -1.458490367     -1.313560234
H        2.576850111     -2.969852367     -1.294868234
H        0.293225111     -1.979118367     -1.431710234
Li       0.225972905      1.035374427     -3.653157724
