29
LiC12NH15
C       -0.991071932     -0.506744349     -0.166507765
C       -2.306797932     -1.220677349     -0.361101765
C       -3.352870932     -0.740616349      0.652258235
C       -3.502027932      0.778827651      0.608173235
C       -2.158861932      1.464072651      0.853569235
C       -1.093284932      1.004478651     -0.153266765
N        0.062286250     -1.194885072      0.019050701
C        1.324053270     -0.603857809      0.181692654
C        1.976794251     -0.705728210      1.417645402
C        3.249397899     -0.167065558      1.585827223
C        3.899688984      0.460017428      0.522315285
C        3.261087884      0.545886706     -0.714071679
C        1.982136244      0.020959399     -0.887079144
H       -2.669167932     -0.997596349     -1.380533765
H       -2.128612932     -2.301020349     -0.291453765
H       -4.316631932     -1.234089349      0.458814235
H       -3.036320932     -1.045511349      1.663929235
H       -3.888871932      1.079029651     -0.381544765
H       -4.241053932      1.114447651      1.351001235
H       -2.264091932      2.557782651      0.803387235
H       -1.811240932      1.225107651      1.872595235
H       -0.120058932      1.462253651      0.065278235
H       -1.394441932      1.332153651     -1.164075765
H        1.467480845     -1.214368347      2.237307060
H        3.741668865     -0.245364316      2.556796241
H        4.900114781      0.873694308      0.654860633
H        3.761816803      1.028126755     -1.555570316
H        1.480341048      0.080218277     -1.854780599
Li      -0.115941312     -3.266131994      0.039351577
