39
LiC15NH18O4
O        1.999335792      2.107604784      1.403672872
C        2.221670316      1.116635504      0.730104260
C        1.640383047      0.757751274     -0.512309029
C        0.516481561      1.592896511     -1.059263781
C       -0.835382749      1.042710156     -0.665499157
C       -1.466525080      1.438612522      0.516648977
C       -2.677281317      0.882137162      0.925062256
C       -3.316239251     -0.105689055      0.152354817
N       -4.549423997     -0.653383225      0.540944373
C       -4.987733812     -0.425008636      1.893521068
C       -4.965811986     -1.879682840     -0.090015727
C       -2.664069602     -0.529432452     -1.021472080
C       -1.454239328      0.037147301     -1.415597725
C        2.050463047     -0.381610726     -1.248552029
O        3.010057006     -1.185288340     -0.633065544
C        3.096138403     -1.102230167      0.768773522
C        1.896317959     -1.802599251      1.414268260
C        4.405511535     -1.766232176      1.152832670
O        3.181505007      0.226975466      1.218584907
O        1.674196575     -0.728346949     -2.356046494
H        0.619794770      2.617124635     -0.671795605
H        0.586824487      1.618237862     -2.157900012
H       -0.972082003      2.183567823      1.145780321
H       -3.118435113      1.222946323      1.860907575
H       -5.138227236      0.648949460      2.081708790
H       -5.953709690     -0.922885827      2.050504318
H       -4.272584525     -0.797842490      2.654909032
H       -4.235689400     -2.704941140      0.034761315
H       -5.926695577     -2.198575377      0.335088563
H       -5.117033942     -1.735552411     -1.170749339
H       -3.094669090     -1.316725959     -1.638837690
H       -0.942095788     -0.330378772     -2.308541271
H        1.857724276     -2.849729476      1.083043998
H        1.991730564     -1.764143640      2.508389834
H        0.964253220     -1.301191962      1.120049252
H        5.224596665     -1.223261009      0.663855654
H        4.541457162     -1.725100789      2.241823540
H        4.409056317     -2.810765769      0.813435122
Li       2.511000809      2.312560083     -1.897460024
