19
LiC6N5H6O
C        2.684620191     -1.617154905      0.200529388
N        1.898010327     -0.416570339      0.185288462
C        2.314531849      0.899980921      0.112143992
N        1.327835003      1.748573852      0.116177037
C        0.185344075      0.976355461      0.193940319
C       -1.237873578      1.325328317      0.248355114
O       -1.679708040      2.467615641      0.232468734
N       -2.064559998      0.210046444      0.331931575
C       -1.576057192     -1.015656663      0.349826969
N       -0.297344767     -1.431441655      0.318432091
C        0.520830781     -0.374738456      0.238550248
N       -2.523196983     -2.049153751      0.389649102
H        3.359338511     -1.651841038      1.070992242
H        1.978448266     -2.456013005      0.260847517
H        3.287501300     -1.721077964     -0.715801551
H        3.376234123      1.148221304      0.057717992
H       -3.400761169     -1.721572827      0.775484770
H       -2.159608629     -2.883534796      0.834746319
Li       1.441675365      3.822359745      0.022938394
