32
LiC15NH12O2Cl
Cl      -4.971113341     -2.171130690     -0.513777218
C       -3.799083118     -0.891167758     -0.420211099
C       -3.885898283      0.042490914      0.609441902
C       -2.946916011      1.067485698      0.680788120
C       -1.927395471      1.172641917     -0.270371772
C       -1.853359178      0.214768167     -1.289177597
C       -2.784022924     -0.813756246     -1.372723460
C       -0.964149289      2.303829945     -0.232670910
C       -1.323310120      3.552406975      0.095418971
N        0.348407640      2.031334183     -0.672617380
C        1.072065014      0.933633743     -0.282114563
O        0.702649369      0.066653662      0.454091837
O        2.288095427      0.992282008     -0.889208162
C        3.223579750     -0.008064983     -0.702175718
C        2.888040169     -1.361478932     -0.687971066
C        3.907851371     -2.302464186     -0.558564531
C        5.239768403     -1.904826766     -0.452356432
C        5.557688733     -0.547442344     -0.475218043
C        4.549353060      0.405500540     -0.596987746
H       -4.678596824     -0.046932298      1.351870889
H       -2.992464275      1.784316132      1.502154413
H       -1.059975492      0.285047272     -2.035486062
H       -2.732373702     -1.555878646     -2.169272571
H       -0.599991120      4.368736975      0.067308971
H       -2.374510120      3.795278975      0.243436971
H        0.862145425      2.763768051     -1.146835779
H        1.847683780     -1.670500950     -0.760784840
H        3.652195503     -3.362878862     -0.541298922
H        6.028329620     -2.651629672     -0.353864733
H        6.596613823     -0.224287127     -0.396083881
H        4.769305875      1.473132819     -0.618722131
Li      -1.890074895      4.671081137     -1.781119014
