11
LiC4NH5
C        0.375529363      1.094878459      0.240258729
C       -0.880974015      0.652226609      0.589550748
C       -0.880636348     -0.765112912      0.456145422
C        0.376234645     -1.134273787      0.031008013
N        1.126244529      0.002230824     -0.095442235
H        0.791668697      2.097678208      0.204901507
H       -1.710571695      1.278555478      0.906300618
H       -1.709912706     -1.439941513      0.650462248
H        0.812188645     -2.129248787      0.031056013
H        2.090952783      0.030418990     -0.392479941
Li      -0.920556732     -0.758506912      2.712782682
