11
LiC2NH7
H       -0.909826240     -1.139227490      0.038202874
N       -1.226365786     -0.178802968      0.154369317
C       -0.087186874      0.706577183      0.345318291
C        1.211091567     -0.080896105      0.271931731
H       -1.706675990      0.068254304     -0.710012800
H       -0.100428065      1.456544582     -0.461341358
H       -0.111438479      1.276659561      1.296569332
H        1.269913210     -0.623010525     -0.681844673
H        2.085614340      0.578217036      0.362378449
H        1.264921578     -0.822315484      1.084523557
Li      -2.490963101     -0.018506838      1.796727311
