19
LiC6H12
C       -1.495903221      1.250858500     -0.013893475
C       -0.650639221      0.000844500     -0.037350475
C       -1.495900221     -1.249171500     -0.060802475
C        0.665121643     -0.005638537      0.249726188
C        1.501965358      1.240279611      0.407640654
C        1.479928260     -1.259696722      0.452172235
H       -2.275524221      1.156116500      0.758885525
H       -0.933803221      2.166841500      0.194113525
H       -2.023245221      1.380475500     -0.973624475
H       -2.275521221     -1.154433500     -0.833583475
H       -0.933797221     -2.165153500     -0.268806475
H       -2.023242221     -1.378786500      0.898927525
H        1.813222552      1.367853667      1.457791329
H        2.427932580      1.141384583     -0.181238230
H        1.001540009      2.158849810      0.085069506
H        2.199101641     -1.392347932     -0.373155417
H        2.077346931     -1.168311744      1.373428362
H        0.882002368     -2.172854106      0.535098050
Li      -1.823568233     -0.042690444      1.890443923
