40
LiSiC17H20O
C       -1.749108410      2.938631077      0.785084498
Si      -0.077020856      2.127610401      0.554644973
C        1.134456652      3.316601298     -0.223737835
C        0.549848676      1.406638265      2.161420588
O       -0.238615665      0.856064601     -0.571461088
C       -0.522609148     -0.425623442     -0.223657375
C        0.447735655     -1.339758845     -0.016015423
C        1.900298655     -1.120008845     -0.050580423
C        2.515117655     -0.087375845     -0.782733423
C        3.897636655      0.079168155     -0.749127423
C        4.699410655     -0.776024845      0.007109577
C        4.105647655     -1.816971845      0.720419577
C        2.724933655     -1.988720845      0.684860577
C       -1.971793930     -0.727696248     -0.094259960
C       -2.449759078     -1.754217586      0.733373233
C       -3.814911436     -2.007563422      0.831017981
C       -4.727225148     -1.236557175      0.109834937
C       -4.263042159     -0.206558542     -0.707115724
C       -2.897426105      0.048780708     -0.805515939
H       -1.669020515      3.795755988      1.471493029
H       -2.481041444      2.231399428      1.202688248
H       -2.140381035      3.308176119     -0.174843573
H        1.201019871      4.244369974      0.364186890
H        0.813950623      3.581446376     -1.242331093
H        2.138551720      2.871865367     -0.281060320
H        0.688847045      2.200464098      2.911044069
H        1.512773871      0.894730339      2.012212762
H       -0.167038618      0.676343856      2.566822768
H        0.124469655     -2.349416845      0.242494577
H        1.899506655      0.572621155     -1.391932423
H        4.355530655      0.883691155     -1.328061423
H        5.781270655     -0.637937845      0.032325577
H        4.721532655     -2.499645845      1.308277577
H        2.265517655     -2.806174845      1.245344577
H       -1.748672719     -2.342901608      1.326883037
H       -4.170239353     -2.804345015      1.486257891
H       -5.797129075     -1.433765034      0.191102041
H       -4.969015731      0.402316126     -1.274177691
H       -2.527838469      0.852062711     -1.443662326
Li       0.890719997     -2.395826096     -1.960889670
