14
LiC3NH7O2
N       -2.353018596      0.099011023      0.061176221
C       -1.234214301     -0.724248568      0.451384546
C        0.043352644      0.078017208      0.363655651
O        1.119975756     -0.708829123      0.292713856
C        2.372598230     -0.040246967      0.282523717
O        0.097886618      1.276508760      0.400759503
H       -3.224503596     -0.281030977      0.417578221
H       -2.230426596      1.030716023      0.454433221
H       -1.258204040     -1.113044111      1.491408102
H       -1.128480176     -1.603909783     -0.201200338
H        2.504551676      0.546080852      1.202184265
H        3.137708710     -0.819370140      0.212352208
H        2.437808219      0.640949966     -0.576420245
Li      -2.447009575      0.173760824     -2.014352426
