49
LiC21N2H24O
C        4.240608408     -2.384901554     -0.318201812
N        2.972389579     -1.714975324     -0.178581446
C        2.866843711     -0.359940454     -0.147214316
O        3.781839607      0.430623755     -0.203207498
C        1.390954134     -0.016792007     -0.008853277
H        1.048536236      0.405613555     -0.977467957
C        1.129561055      1.013968859      1.113190838
C        0.861584251      2.403504268      0.588873445
C       -0.378001666      3.020202483      0.788543212
C       -0.630749243      4.294354741      0.278371210
C        0.355700469      4.965843786     -0.440624462
C        1.594447651      4.356447151     -0.647340504
C        1.846824187      3.084722179     -0.138370912
N        0.790871586     -1.308684401      0.239551453
C       -0.572691355     -1.469073685      0.153625788
C       -1.467500140     -0.487927931     -0.088856539
C       -2.925580140     -0.658090931     -0.103357539
C       -3.722068140      0.371546069     -0.631349539
C       -5.108643140      0.256806069     -0.685499539
C       -5.737686140     -0.892478931     -0.209523539
C       -4.961796140     -1.919537931      0.329805461
C       -3.576995140     -1.802076931      0.389611461
C        1.695564497     -2.417015635     -0.103299443
C        1.346550928     -3.038464793     -1.460633092
C        1.708843727     -3.468744203      1.002985393
H        5.006359471     -1.605343114     -0.413537671
H        4.469311465     -3.003783009      0.562666831
H        4.263889894     -3.020489445     -1.216833093
H        0.270581512      0.665949505      1.702996466
H        2.003173948      1.029689606      1.782504973
H       -1.154962899      2.494812157      1.350812912
H       -1.602624785      4.762279816      0.444934997
H        0.161371681      5.962450007     -0.840329770
H        2.371941722      4.877470255     -1.208758241
H        2.812512276      2.598375497     -0.300054565
H       -0.914576499     -2.494483054      0.325008799
H       -1.108489140      0.522253069     -0.302133539
H       -3.235621140      1.273657069     -1.010296539
H       -5.702010140      1.071868069     -1.103453539
H       -6.823813140     -0.984872931     -0.249063539
H       -5.442030140     -2.818128931      0.721271461
H       -2.997116140     -2.605816931      0.847132461
H        1.299397643     -2.254915416     -2.230173694
H        2.100423761     -3.782527654     -1.754810441
H        0.371997494     -3.543898225     -1.416137760
H        0.704922722     -3.897049454      1.130641616
H        2.393060099     -4.292858058      0.755209241
H        2.018716349     -3.005367546      1.949099935
Li      -2.103515030     -0.591607310     -2.251906387
