30
LiC14NH13O
C        4.536430682     -1.309000179      0.518248929
C        3.169922326     -0.655398490      0.577453938
O        2.297902426     -1.009619173      1.329254682
N        3.009647120      0.376088985     -0.332279297
C        1.861158880      1.188640910     -0.437811607
C        1.982507350      2.505211803     -0.664904935
C        0.540534426      0.508989814     -0.396338732
C        0.370226484     -0.759786308     -1.021501067
C       -0.857783266     -1.364124824     -1.055108496
C       -1.993021254     -0.748781326     -0.456694240
C       -3.278509554     -1.351810923     -0.470101420
C       -4.351054975     -0.732001333      0.124947906
C       -4.186328268      0.521856603      0.764786653
C       -2.954056136      1.128234338      0.793428945
C       -1.827381033      0.513376463      0.182571334
C       -0.542362500      1.117708205      0.196995891
H        4.582952596     -2.085085809      1.288118887
H        4.700959720     -1.759841239     -0.470880843
H        5.330803721     -0.569133957      0.693634309
H        3.843732973      0.719601754     -0.791663147
H        1.103844350      3.108664803     -0.887720935
H        2.961125350      2.988674803     -0.679044935
H        1.234314733     -1.240327799     -1.483528963
H       -0.981799536     -2.333707746     -1.542005222
H       -3.399253410     -2.319813813     -0.961240613
H       -5.334137229     -1.204811448      0.108470708
H       -5.043951845      1.003457524      1.236936577
H       -2.821556242      2.093628951      1.286573854
H       -0.413283777      2.072622474      0.711172036
Li       2.272715449      2.845606940     -2.877134446
