12
LiC4N2H5
C       -2.110012336     -0.041669826      0.136774565
C       -0.605698811     -0.041577167      0.120582200
N        0.104923818     -1.181518714      0.124191122
C        1.390140192     -0.738036962      0.143610626
C        1.390080789      0.654922666      0.148469928
N        0.104787860      1.098379474      0.133461876
H       -2.521933721     -0.050394969      1.163115967
H       -2.496485113      0.860151991     -0.361312321
H       -2.497057923     -0.934762775     -0.376466607
H        2.241550684     -1.424647910      0.144214282
H        2.241410363      1.341605807      0.154033593
Li      -0.588073191      3.058528588      0.133569396
