33
LiSiC9H22
C       -3.590432744      1.530810396      0.035476171
C       -2.443284784      0.525652813      0.031834155
C       -1.059998440      1.183998364      0.020111652
Si       0.360364858     -0.063968569      0.015615592
H        1.655231599      0.685540222      0.004120160
C        0.283498105     -1.138678253      1.568490461
C        0.225865078     -0.349283511      2.880000250
C        0.215056645     -1.242084469      4.117122287
C        0.263035617     -1.150813025     -1.527636141
C        0.188032061     -0.371719446     -2.844416765
C        0.160919359     -1.274189248     -4.074251903
H       -3.535177513      2.183163857      0.920020388
H       -3.546907455      2.176207704     -0.854807219
H       -4.570093388      1.031674572      0.043907090
H       -2.529904710     -0.131522655      0.914600291
H       -2.541530920     -0.138417291     -0.844531780
H       -0.961649784      1.839979561     -0.862484312
H       -0.950026786      1.846872292      0.896161773
H       -0.595389432     -1.803529010      1.492521367
H        1.163247657     -1.805917250      1.571144453
H        1.084825124      0.341199719      2.932735897
H       -0.672923650      0.290706638      2.884341087
H        0.174590993     -0.653409924      5.044885959
H       -0.655534638     -1.915176916      4.104833545
H        1.118236296     -1.869755074      4.153299344
H        1.142707807     -1.818097900     -1.536687804
H       -0.614736595     -1.815002366     -1.434848217
H       -0.710768683      0.268263577     -2.841893875
H        1.046184278      0.318284721     -2.913911510
H       -0.709398581     -1.947119596     -4.045181866
H        0.108164179     -0.692802704     -5.005985340
H        1.063574464     -1.902170921     -4.117442503
Li       3.723643884      1.882801023     -0.014242574
