20
LiC7H12
C       -2.504223703      0.102217767      0.353929027
C       -1.012910771      0.088643908      0.170611462
C       -0.319147688      1.188278919     -0.151097759
C        1.178484514      1.230047929     -0.306106499
C        1.847616456     -0.010430801      0.282637818
C        1.099553847     -1.270325334     -0.145315838
C       -0.333878187     -1.245253412      0.381142504
H       -2.920111091      1.111267228      0.233422427
H       -2.994519662     -0.566388534     -0.371978637
H       -2.774469868     -0.267537290      1.356493049
H       -0.862069688      2.136757919     -0.222382759
H        1.433522740      1.323000221     -1.377556781
H        1.572304556      2.141689399      0.170780261
H        2.903413553     -0.057290590     -0.022092125
H        1.833936222      0.057280025      1.383836672
H        1.080394662     -1.318612264     -1.247410069
H        1.618901024     -2.174632086      0.204440082
H       -0.348266904     -1.482566937      1.461117343
H       -0.935518594     -2.034207795     -0.100525775
Li       0.248693238      2.278788280      1.741623831
