12
LiC5H6
C       -0.716685301      0.965646187     -0.317129000
C       -1.169799738     -0.249491917      0.048516973
C       -0.007251967     -1.188594875      0.186457851
C        1.174456678     -0.328391894     -0.154242078
C        0.747460539      0.916335400     -0.443879647
H       -1.325729150      1.852049342     -0.494129116
H       -2.208965738     -0.576388917      0.048577973
H        0.066966507     -1.605218190      1.206622396
H       -0.095133291     -2.055515326     -0.492187567
H        2.205773225     -0.679227244     -0.159534725
H        1.374899792      1.761099412     -0.727898149
Li      -1.452541566     -1.514785888     -1.798950814
