39
LiC21H15O2
O        1.643460298      2.957447676     -0.834964710
C        1.448563298      1.739229676     -0.874443710
C        2.694745298      0.881841676     -0.694023710
C        3.896389298      1.371193676     -1.212185710
C        5.096533298      0.694421676     -0.999804710
C        5.114199298     -0.470071324     -0.233054710
C        3.923442298     -0.948137324      0.317278290
C        2.724094298     -0.279855324      0.084783290
C        0.150787298      1.120762676     -0.984268710
C        0.037092276     -0.269732535     -1.361445460
C       -1.170205029     -1.074709135     -0.880599678
C       -1.513938371     -2.226595870     -1.595073290
C       -2.558728842     -3.045234190     -1.169987583
C       -3.259546585     -2.733585388     -0.004466061
C       -2.904831480     -1.601559562      0.731058517
C       -1.869606463     -0.776598739      0.294638751
O        0.876466509     -0.904468821     -2.000811903
C       -1.042823702      1.971770676     -0.866561710
C       -1.094291702      3.085183676      0.002380290
C       -2.244913702      3.855847676      0.130879290
C       -3.396539702      3.557974676     -0.602399710
C       -3.361954702      2.479253676     -1.485176710
C       -2.205991702      1.715901676     -1.624418710
H        3.863648298      2.304772676     -1.776022710
H        6.024781298      1.082388676     -1.426064710
H        6.053058298     -1.000129324     -0.057409710
H        3.928889298     -1.852190324      0.930171290
H        1.792883298     -0.658164324      0.511047290
H       -0.926191513     -2.462648621     -2.483799706
H       -2.824262261     -3.935500772     -1.744879184
H       -4.076316211     -3.374733894      0.334358227
H       -3.440485488     -1.357611139      1.650832871
H       -1.594580092      0.113403958      0.863821311
H       -0.202503702      3.341146676      0.572649290
H       -2.243766702      4.705280676      0.818884290
H       -4.298388702      4.164670676     -0.497636710
H       -4.240767702      2.234550676     -2.087112710
H       -2.195066702      0.895000676     -2.344133710
Li       0.261368502      2.382229758     -2.852562477
