47
LiC16H30
C       -2.270035046     -2.507198914     -1.373698308
C       -1.607608236     -2.129953493     -0.275927046
C       -2.019775441     -0.943145910      0.563104717
C       -3.008492132      0.026738620     -0.078558583
C       -3.106227521      1.366997676      0.662382485
C       -2.143703800      2.448320009      0.160955978
C       -0.645950089      2.163903626      0.294172111
C        0.191261539      3.351920199     -0.181127742
C        1.696961778      3.278278520      0.083379328
C        2.426821146      2.087047298     -0.556451705
C        2.577374392      0.882322938      0.369114491
C        3.322029265     -0.291653666     -0.270164260
C        3.343085688     -1.566611478      0.588777550
C        2.195384640     -2.539968436      0.300017672
C        0.819425262     -1.890370574      0.360907429
C       -0.358682045     -2.853523799      0.175057825
H       -3.169226046     -1.989745914     -1.712611308
H       -1.951456046     -3.380057914     -1.948344308
H       -2.432683886     -1.314643996      1.519580791
H       -1.115897144     -0.385709238      0.849035776
H       -2.704038829      0.214569597     -1.122824319
H       -4.000202194     -0.448852237     -0.133778209
H       -4.128052038      1.764151199      0.564600557
H       -2.948827264      1.202864870      1.742969258
H       -2.367013466      2.654000728     -0.900933038
H       -2.362073137      3.385845647      0.699824965
H       -0.405138876      1.932859990      1.348303161
H       -0.376223230      1.267787706     -0.291668903
H        0.023853287      3.485417673     -1.264502612
H       -0.199925698      4.266261939      0.296399321
H        2.141459017      4.216921936     -0.281562544
H        1.875082312      3.265711800      1.172950625
H        1.897406889      1.780515104     -1.476916910
H        3.432756670      2.399432192     -0.881915098
H        3.124190885      1.194038482      1.276308920
H        1.584076875      0.563234351      0.717965328
H        2.877138478     -0.519914183     -1.255566604
H        4.353782712      0.033820249     -0.480582753
H        4.294055928     -2.100095052      0.440180128
H        3.319923868     -1.279409258      1.654730253
H        2.336236615     -2.977181563     -0.704019233
H        2.240463345     -3.382290584      1.010725976
H        0.717735970     -1.362508743      1.323393972
H        0.755621840     -1.115252131     -0.422194699
H       -0.549334786     -3.384593614      1.124550128
H       -0.102502670     -3.622212875     -0.570648144
Li      -3.840564152     -4.023104339     -0.799661661
