47
LiC22PH21O2
C       -5.833229873      0.226275851     -1.896754384
C       -4.811529873      0.029926851     -0.799032384
O       -3.527038873      0.235836851     -1.364584384
C       -2.477321873      0.054520851     -0.527735384
O       -2.656668873     -0.255161149      0.646327616
C       -1.212764873      0.276814851     -1.143273384
P        0.147843797      0.274778964     -0.112432682
C        0.008662523      1.384926584      1.329660815
C       -0.862958500      2.474073597      1.251312604
C       -0.943801693      3.372705066      2.313101177
C       -0.156705180      3.185539027      3.449586293
C        0.708694635      2.094467027      3.530433827
C        0.788891309      1.189279832      2.473684846
C        0.685118995     -1.320311999      0.614140819
C        2.018233359     -1.742630298      0.554189253
C        2.391364645     -2.957345355      1.130817554
C        1.438515431     -3.751063721      1.765515556
C        0.109212658     -3.330065912      1.826179638
C       -0.273720704     -2.118151509      1.256516672
C        1.565381057      0.854426904     -1.094832153
C        1.850506132      0.201001366     -2.301834561
C        2.929973662      0.614244759     -3.077845228
C        3.728495027      1.678621533     -2.655230683
C        3.445836800      2.329331031     -1.456394015
C        2.366289015      1.918593891     -0.673045489
H       -6.849628873      0.087840851     -1.503485384
H       -5.754740873      1.237866851     -2.318162384
H       -5.669657873     -0.496563149     -2.707726384
H       -4.965705873      0.736507851      0.031736616
H       -4.866572873     -0.980552149     -0.365369384
H       -1.113655873      0.560246851     -2.187547384
H       -1.476464938      2.601342377      0.356488967
H       -1.629178684      4.219531446      2.255873285
H       -0.223484645      3.889237471      4.280892333
H        1.317632329      1.941570922      4.422613188
H        1.455223919      0.326399239      2.542320750
H        2.771794253     -1.127778960      0.057856645
H        3.431632001     -3.282669257      1.080987713
H        1.732333162     -4.701352485      2.214451668
H       -0.638427805     -3.949275961      2.324087254
H       -1.309625401     -1.774120011      1.306544480
H        1.225534439     -0.633370999     -2.628794479
H        3.148904983      0.103824657     -4.016855075
H        4.574064613      2.000964805     -3.264827806
H        4.066183455      3.163297316     -1.125393657
H        2.146122229      2.431616894      0.265014496
Li      -0.470327051     -1.666155298     -2.019459485
