15
LiC5H7O2
C       -0.336671573      2.545692544      0.739875995
C       -0.330293964      1.322908558     -0.206578195
C       -0.355755519      0.053727259      0.439575045
H       -0.377267720      0.053835152      1.531643180
C       -0.355755519     -1.215581741     -0.206828955
C       -0.355755519     -2.438333741      0.739688045
O       -0.355755519     -1.466699741     -1.411915955
O       -0.304041418      1.573894889     -1.411406644
H       -0.360292925      2.290596016      1.809045358
H        0.557529348      3.153342361      0.529213191
H       -1.209516911      3.171069620      0.494403121
H       -0.355755519     -2.183118741      1.809090045
H       -1.239494519     -3.054900741      0.511515045
H        0.527983481     -3.054900741      0.511515045
Li       1.761197332     -0.265981272      1.153960154
