50
LiC23N4H20O2
O        3.441972563      2.108109623      0.955104169
C        3.534466140      0.961373629      0.585865475
N        2.445643568      0.227999544      0.124196195
C        2.371626513     -1.222079679      0.235299057
C        1.243602060     -1.606152885      1.183932305
N        0.000807143     -1.076001864      0.683240750
C       -1.241716890     -1.606622660      1.184102435
C       -2.370016391     -1.222977689      0.235623718
N       -2.444601333      0.227073640      0.124529097
C       -3.533636717      0.960039452      0.586349737
O       -3.441507290      2.106788657      0.955637539
C       -4.875264718      0.276868465      0.559430613
C       -5.777193186      0.572845861      1.584806251
C       -7.059786944      0.030809747      1.564468267
C       -7.456543601     -0.783945816      0.503549853
C       -6.570117096     -1.054190003     -0.539036446
C       -5.280356758     -0.528286021     -0.510217190
C       -1.205917337      0.873197690     -0.137672581
C       -1.140042610      2.136831277     -0.727957040
N       -0.000032598      2.752220481     -1.014725458
C        1.140248344      2.137263270     -0.728111092
C        1.206680614      0.873653959     -0.137837710
C        0.000528675      0.201855957      0.157621235
C        4.876338089      0.278691570      0.558766247
C        5.778342568      0.575078812      1.583957066
C        7.061126762      0.033499849      1.563435430
C        7.457983112     -0.781207378      0.502516710
C        6.571464671     -1.051863272     -0.539883739
C        5.281521056     -0.526418954     -0.510878856
H        2.184552724     -1.670517090     -0.754440318
H        3.318184333     -1.611124330      0.621347648
H        1.161526413     -2.702573596      1.238176645
H        1.477742776     -1.233562080      2.200436782
H       -1.159218540     -2.703012511      1.238337435
H       -1.475859164     -1.234119664      2.200640255
H       -2.182910187     -1.671344323     -0.754139561
H       -3.316371532     -1.612382491      0.621805801
H       -5.458028186      1.241155278      2.386142258
H       -7.757926661      0.253098703      2.372632635
H       -8.464606580     -1.201122177      0.482669831
H       -6.886610265     -1.671930130     -1.380759055
H       -4.587899360     -0.726700580     -1.331233130
H       -2.066167790      2.665231653     -0.961018752
H        2.066142127      2.666014124     -0.961297106
H        5.459081564      1.243342753      2.385291651
H        7.759332004      0.256108614      2.371455271
H        8.466191097     -1.198026143      0.481493470
H        6.888026508     -1.669569403     -1.381607031
H        4.588982499     -0.725162637     -1.331746306
Li      -0.000448317      4.641202894     -1.883049285
