30
LiC13NH15
C        2.002337505      0.721776905      0.286494648
C        3.324717745      0.300763944      0.328309853
C        3.608451714     -1.060641417      0.191900397
C        2.574141606     -1.978931092      0.004291836
C        1.242209017     -1.561849625     -0.036793607
C        0.954677822     -0.203296456      0.118990332
C       -0.319743056      0.556367041      0.110387312
N       -1.562882881     -0.006597000     -0.047347914
C       -2.724783716      0.862411184     -0.061524651
C       -3.895816266     -0.113177418     -0.114934427
C       -3.386580883     -1.267515227      0.749492663
C       -1.907220450     -1.366903104      0.361695333
C       -0.041517087      1.882749078      0.239543650
C        1.437712766      2.114655729      0.363793610
H        4.131855047      1.024630043      0.459039771
H        4.642446786     -1.407625242      0.222656062
H        2.807220489     -3.038098456     -0.116465161
H        0.455443549     -2.297104492     -0.199454315
H       -2.765588406      1.485114289      0.856256632
H       -2.684482704      1.550626008     -0.921119797
H       -4.833701956      0.325348815      0.249743329
H       -4.054314585     -0.452323239     -1.150082489
H       -3.474544544     -0.997667694      1.812971744
H       -3.928105601     -2.209644432      0.593241916
H       -1.770177318     -2.081963323     -0.469045151
H       -1.282489943     -1.704607072      1.202621434
H       -0.776524087      2.684450078      0.246998650
H        1.709121948      2.608313918      1.313164162
H        1.844464233      2.747046174     -0.444697478
Li       0.352602425      2.753379073     -1.805137798
