14
LiC7NH4O
O        3.106887084     -0.000632554      0.013428695
C        1.865982765     -0.000875399      0.018571562
C        1.067945504     -1.221182598      0.021900560
C       -0.306057208     -1.213310489      0.027608223
C       -1.041057086     -0.001444305      0.030650415
C       -2.464975777     -0.001722965      0.036564398
N       -3.627663706     -0.001950503      0.041398407
C       -0.306531646      1.210709464      0.027594204
C        1.067467880      1.219119356      0.021886548
H        1.623510933     -2.162302892      0.019601506
H       -0.857847555     -2.157976492      0.029908368
H       -0.858691739      2.155160425      0.029883114
H        1.622664862      2.160457025      0.019575255
Li       3.762898368     -0.089109190      1.891167249
