45
LiC22H22
H       -0.000697219      0.002262061      1.921047228
C       -0.005785383      0.007396176      0.818212847
C        0.026162011     -1.451227200      0.379745717
C        0.780100248     -1.895444503     -0.707078041
C        0.733446524     -3.232664246     -1.108023280
C       -0.059466876     -4.164228193     -0.435988531
C       -0.096346523     -5.612150841     -0.849842126
C       -0.813863093     -3.713884510      0.656555277
C       -0.771801754     -2.383533502      1.055787778
C       -1.289891878      0.709800379      0.395794485
C       -2.061263529      0.283463232     -0.685992983
C       -3.201467014      0.992031121     -1.071701599
C       -3.607989267      2.139494606     -0.388814085
C       -4.850066487      2.893894362     -0.785297548
C       -2.830912884      2.563331410      0.698394378
C       -1.694137365      1.862284353      1.082305208
C        1.240326721      0.768803713      0.384354367
C        2.449062729      0.533571018      1.052705937
C        3.621427266      1.166040880      0.657261355
C        3.631143364      2.058767662     -0.423770458
C        4.902772580      2.754519851     -0.833612635
C        2.425668582      2.289854411     -1.088227032
C        1.244997680      1.657889034     -0.691003158
H        1.415037635     -1.191581260     -1.248625117
H        1.331091191     -3.555949799     -1.963449129
H        0.422183780     -6.244879218     -0.113365768
H       -1.130743936     -5.977123152     -0.924028287
H        0.390666247     -5.761002986     -1.822388628
H       -1.444275299     -4.421148711      1.201172727
H       -1.377649203     -2.051914748      1.903157085
H       -1.772553809     -0.614664530     -1.235355227
H       -3.787878916      0.639597586     -1.923390422
H       -5.652058336      2.746805080     -0.045805118
H       -4.655471375      3.974182310     -0.846324191
H       -5.226547618      2.557252486     -1.760045190
H       -3.125018931      3.458991737      1.251157266
H       -1.096614726      2.217598589      1.925982205
H        2.467147123     -0.168085560      1.890808565
H        4.551020890      0.965384150      1.195629632
H        5.735120123      2.041384341     -0.919176903
H        4.785345375      3.262432247     -1.799751377
H        5.194660817      3.510816980     -0.089008881
H        2.404447187      2.980140405     -1.934696505
H        0.316176664      1.863925363     -1.226386111
Li       0.010329325     -0.008864061      4.310995893
