19
LiSiC5H12
C        1.581821413     -1.293422864     -0.399231292
Si       0.149726667     -0.078025707     -0.379263899
C        0.790258315      1.689703098     -0.365207309
C       -1.303024186     -0.330716260     -1.574518366
C       -2.228688198     -0.003830189     -0.365884949
C       -1.290254052     -0.354194766      0.826209117
H        2.221541743     -1.157079904      0.485917126
H        1.219393675     -2.331276567     -0.404126154
H        2.207205687     -1.143888353     -1.292481369
H        1.405141617      1.893717067     -1.254691260
H       -0.043203411      2.406856804     -0.356095234
H        1.410457122      1.877401197      0.524185223
H       -1.440704785      0.286602035     -2.471963200
H       -1.398670736     -1.389924424     -1.860611490
H       -2.455768845      1.073450436     -0.354133045
H       -3.193040935     -0.535020053     -0.365952969
H       -1.382936117     -1.418814257      1.092511585
H       -1.418351902      0.245415550      1.736978368
Li       2.757481226      2.285067030      2.455877391
