32
LiC13NH17
C       -0.367981590      2.092543045      0.228377310
C       -0.121168955      0.795224818     -0.048009764
C        1.268843650      0.266794614      0.095391181
C        2.036474917      0.566232411      1.225621821
C        3.347346173      0.103223722      1.335827860
C        3.904757119     -0.668624160      0.318388892
C        3.144371302     -0.976013280     -0.811441234
C        1.835867798     -0.514554425     -0.921113708
N       -1.051309476     -0.107187890     -0.570596281
C       -1.116269250     -1.452115281     -0.000032770
C       -2.001520967     -1.491626721      1.247275095
C       -3.401469176     -0.964776297      0.928785511
C       -3.321943946      0.420756015      0.285045282
C       -2.374275476      0.385439825     -0.919039289
H       -1.361333590      2.532993045      0.154854310
H        0.460808410      2.751022045      0.483853310
H        1.589982244      1.157562984      2.027281065
H        3.932782103      0.341458628      2.225416202
H        4.929113868     -1.034303498      0.405248476
H        3.576803422     -1.576665750     -1.613453823
H        1.233136992     -0.749756185     -1.800762900
H       -1.534477057     -2.124183357     -0.769781294
H       -0.103477016     -1.806536634      0.227103408
H       -2.049661026     -2.519236048      1.638957658
H       -1.535439706     -0.866804424      2.028531399
H       -3.893845760     -1.661021249      0.226484450
H       -4.024228051     -0.937820062      1.835341027
H       -4.318745718      0.763920184     -0.031585094
H       -2.945044019      1.146046190      1.023842110
H       -2.272125132      1.371990912     -1.390919011
H       -2.789547218     -0.299613412     -1.679034146
Li      -0.203536607      3.293615558     -1.675416709
