20
LiC9H10
C       -3.252015347      0.486038348      0.510249296
C       -2.185140678     -0.227274155      0.867100561
C       -1.248428304     -0.905534822     -0.093248172
C        0.181756843     -0.419202520      0.034398901
C        1.240718662     -1.319975105      0.176428350
C        2.556864533     -0.868165332      0.274090653
C        2.831389083      0.497129681      0.232549600
C        1.781520351      1.406104638      0.095615104
C        0.468757249      0.950864544     -0.000009298
H       -3.518342497      0.616749665     -0.542613547
H       -3.897876921      0.957476486      1.253238234
H       -1.939221542     -0.334447922      1.929649779
H       -1.266469235     -1.993216024      0.080747246
H       -1.605417565     -0.742105080     -1.123339151
H        1.031903402     -2.391934511      0.209209973
H        3.369930212     -1.587670233      0.384145983
H        3.859625161      0.853916243      0.308869856
H        1.986926596      2.477541238      0.065004302
H       -0.352476680      1.664936757     -0.098352287
Li      -2.379384444     -0.387782917     -3.356617252
