15
LiC4NH9
C       -0.503903357      1.400148972      0.037192355
C       -1.198757357      0.036594972     -0.166971645
N       -0.103457357     -0.920070028     -0.350078645
C        1.143392643     -0.306622028      0.079428355
C        0.951016643      1.138879972     -0.366336645
H       -0.974786357      2.207152972     -0.539560645
H       -0.543056357      1.689022972      1.098199355
H       -1.841427357     -0.201653028      0.699195355
H       -1.851854357      0.044236972     -1.054998645
H       -0.026686427     -1.137657817     -1.337531354
H        1.305627643     -0.336665028      1.178234355
H        2.008524643     -0.791427028     -0.397779645
H        1.064313643      1.198322972     -1.459081645
H        1.662492643      1.836622972      0.095195355
Li      -0.468633493     -2.767021195      0.531770989
