45
LiSi2C12H30
C       -0.501077073      4.136586306      1.559207979
Si       0.587332915      3.874966865      0.042283130
C       -0.462736343      4.046665124     -1.513999714
C        1.965609068      5.158923676      0.021910020
C        1.358771527      2.149900650      0.102382392
C        0.356292407      0.993633406      0.123707711
C        1.011419252     -0.384430086      0.172202689
C        0.011584226     -1.534769624      0.193387553
C        0.666711071     -2.912833116      0.241882531
C       -0.335768049     -4.069100361      0.263207850
Si       0.435670563     -5.794166575      0.323307112
C        1.485739821     -5.965864834      1.879589956
C       -0.942605590     -7.078123387      0.343680222
C        1.524080551     -6.055786016     -1.193617737
H       -1.345712673      3.431426855      1.570308745
H        0.072417166      3.993030050      2.487690807
H       -0.916059367      5.155876209      1.573458507
H       -0.876490965      5.063075747     -1.598153418
H        0.133618572      3.849493330     -2.417918130
H       -1.307346878      3.341446891     -1.504907932
H        2.593440734      5.077045696      0.922127343
H        2.615624939      5.025016695     -0.856051324
H        1.557187067      6.180184635     -0.013067177
H        2.032420496      2.043770975     -0.766998267
H        2.010463086      2.095268070      0.993001594
H       -0.316904573      1.098059748      0.992938744
H       -0.294952276      1.046574644     -0.766651325
H        1.682322029     -0.495777283     -0.697865975
H        1.660344518     -0.444233046      1.063745072
H       -0.659318551     -1.423422427      1.063456217
H       -0.637341040     -1.474966665     -0.698154830
H        1.339908051     -3.017259459     -0.627348503
H        1.317955754     -2.965774355      1.132241567
H       -1.009417018     -3.962970686      1.132588509
H       -0.987459608     -4.014467780     -0.627411353
H        0.889384906     -5.768693040      2.783508372
H        1.899494443     -6.982275458      1.963743659
H        2.330350356     -5.260646602      1.870498174
H       -1.570437256     -6.996245407     -0.556537102
H       -0.534183589     -8.099384346      0.378657419
H       -1.592621461     -6.944216405      1.221641566
H        2.368716151     -5.350626566     -1.204718504
H        1.939062845     -7.075075919     -1.207868265
H        0.950586312     -5.912229760     -2.122100565
Li      -1.817194466      7.369266806      1.604403564
