40
LiC11PN2H25
H       -0.006406390      0.117431712     -1.797951207
P       -0.017657429     -0.911586330     -0.804811747
N        1.337193732     -0.280137674      0.043358892
C        2.317479492     -1.105715788      0.773671441
C        2.125273007     -0.982865856      2.293637618
C        2.169831086     -2.578702137      0.387846069
C        3.736159014     -0.657038105      0.390467421
C        1.258572307      1.138101494      0.370288608
C       -0.014771830      1.508570820      1.139871877
C       -1.283651110      1.152376498      0.356296286
N       -1.374617116     -0.264901063      0.028383355
C       -2.371989014     -1.079402756      0.747925676
C       -3.781293202     -0.614815247      0.349392439
C       -2.236737447     -2.553958563      0.363546175
C       -2.194917261     -0.958711343      2.269900690
H        1.113403512     -1.310668895      2.576319393
H        2.854279443     -1.609138262      2.829154122
H        2.259307383      0.053035159      2.638730408
H        2.257535878     -2.715460487     -0.699388196
H        2.962638394     -3.159770570      0.879991060
H        1.198457219     -2.986100862      0.703279780
H        3.913993716      0.398095126      0.642140210
H        4.490171651     -1.256965782      0.921329453
H        3.883589259     -0.779905031     -0.691967138
H        2.142462234      1.442097992      0.948916772
H        1.285520056      1.725682268     -0.567485000
H       -0.023061898      0.975305802      2.104369945
H       -0.009887731      2.589510910      1.354055237
H       -2.170384562      1.466305714      0.925189452
H       -1.293676176      1.740185623     -0.581667086
H       -3.918334997     -0.736038603     -0.734590748
H       -4.547712197     -1.206228685      0.871977294
H       -3.949991265      0.442251131      0.599231983
H       -1.273515777     -2.972281870      0.689503403
H       -3.041362992     -3.126062785      0.846935349
H       -2.314110072     -2.689707253     -0.724599535
H       -2.321080369      0.078629204      2.613635249
H       -2.936646195     -1.576785453      2.797412438
H       -1.189898863     -1.297815832      2.563482063
Li       0.012395816      1.837077980     -3.457638885
