17
LiC8NH6Br
Br       2.601148534     -0.040293337      0.704426369
C        0.741207341      0.236526172      0.451313577
C        0.278980456      1.556132720      0.270380854
C       -1.070481924      1.803785403      0.082298910
C       -1.944174730      0.708697901      0.078985933
C       -1.484767899     -0.621092031      0.260536276
C       -2.639835473     -1.473582241      0.199935096
C       -3.718978527     -0.657077593     -0.008672061
N       -3.305755350      0.652181222     -0.081897166
C       -0.110183191     -0.853347072      0.450231330
H        0.993554479      2.378781231      0.279968958
H       -1.433279950      2.822965754     -0.058157252
H       -2.662275226     -2.554527663      0.299136174
H       -4.782266527     -0.883224593     -0.008633061
H       -3.908900394      1.447937884     -0.230527221
H        0.278378713     -1.861746347      0.592788137
Li      -2.317768224     -1.712675081      2.421006077
