42
LiSnC12H28
H       -1.869541350      1.450142677     -0.032162395
Sn      -0.776839129      0.102848928     -0.099092994
C        1.288749172      0.777959444     -0.130168817
C        2.258011263     -0.404354895     -0.189159867
C        3.728813143      0.008812274     -0.213288337
C        4.681627432     -1.179399122     -0.272047379
C       -0.993850270     -1.143297182      1.669705411
C       -0.343476276     -0.527658824      2.909759865
C       -0.438168715     -1.411855523      4.152472049
C        0.225719827     -0.791991470      5.376640856
C       -1.082750999     -1.036790050     -1.925636912
C       -0.493504130     -0.347918608     -3.157698693
C       -0.650739179     -1.157186405     -4.444348142
C       -0.047203653     -0.465016686     -5.660988868
H        1.441289296      1.441408228     -0.997069337
H        1.484880876      1.389183525      0.765870672
H        2.092050621     -1.073154655      0.675894480
H        2.048558763     -1.021049424     -1.083012530
H        3.898499590      0.670450575     -1.079270422
H        3.942022234      0.618308461      0.680881661
H        5.732390119     -0.857803959     -0.288502389
H        4.545479228     -1.837000813      0.599969012
H        4.501623566     -1.784459728     -1.173651048
H       -2.062104170     -1.339190242      1.853843280
H       -0.533365002     -2.120631144      1.447289565
H        0.722282894     -0.314122404      2.709265745
H       -0.804955709      0.451193462      3.133363103
H       -1.500585751     -1.617984837      4.364823671
H        0.022903892     -2.388934996      3.930089249
H       -0.242343285      0.170464665      5.633142878
H        0.150612396     -1.447034969      6.255907155
H        1.293619694     -0.601505324      5.190411126
H       -0.613274795     -2.024895566     -1.784439362
H       -2.159079803     -1.223009008     -2.068066010
H       -0.964029698      0.641771361     -3.299941191
H        0.581166466     -0.145058483     -2.997795024
H       -0.180677612     -2.145035063     -4.303197486
H       -1.722646407     -1.351946037     -4.615800890
H        1.028866937     -0.284319438     -5.516776516
H       -0.166595532     -1.067005395     -6.572683724
H       -0.525953379      0.510242502     -5.836677208
Li      -3.373899633      3.305005302      0.059983114
