27
LiC10H16
C        2.596858009     -1.241697191     -0.270375391
C        1.450903704     -0.285134539     -0.151038201
C        1.479693032      0.855174175      0.551072804
C        0.238485185      1.711300244      0.637880760
C       -0.886720851      1.105615419     -0.209193013
C       -0.308932898      0.689588812     -1.582587328
C        0.152784652     -0.608324467     -0.868897275
C       -1.065151693     -0.414549848      0.101007392
C       -0.953346001     -0.884074679      1.545271061
C       -2.360658660     -0.972113987     -0.488406631
H        3.480343031     -0.886183995      0.276414657
H        2.314713268     -2.230626911      0.126515943
H        2.874028783     -1.391984657     -1.326217541
H        2.396711032      1.198652175      1.038810804
H       -0.081907133      1.807240668      1.690741936
H        0.453438445      2.737331670      0.292382346
H       -1.793058786      1.730846697     -0.188281093
H       -1.084225845      0.519944960     -2.337346815
H        0.485327284      1.320698322     -2.005364174
H        0.208196822     -1.545876850     -1.442799902
H       -0.028734321     -0.552825353      2.032944832
H       -1.806877511     -0.503622788      2.129062510
H       -0.986016743     -1.984130942      1.592153385
H       -2.355448992     -2.072129219     -0.445243946
H       -3.224833775     -0.618277003      0.095263724
H       -2.520756154     -0.678674215     -1.533641425
Li       2.026802135      2.554649176     -0.829689794
