34
LiSiC13H18O
C       -3.218895501      0.429050334     -1.542855446
Si      -2.671270722     -0.284141427      0.101297082
O       -0.998334015     -0.542701513      0.093285866
C        0.025113078      0.334326614     -0.010744659
C       -0.100353972      1.662726397     -0.189812097
C        1.116372650      2.536788170     -0.353977357
C        2.295487632      1.992090948      0.447052649
C        2.498538084      0.516528914      0.204949309
C        3.760749799     -0.074769410      0.209355307
C        3.906061738     -1.453326708      0.048112811
C        2.778745246     -2.256746931     -0.111112565
C        1.510504805     -1.679690305     -0.117045744
C        1.363758082     -0.297920325      0.030277610
C       -3.130517357      0.828031332      1.537244958
C       -3.374180365     -1.997036467      0.336950166
H       -2.861933695     -0.205177278     -2.367959622
H       -4.318383551      0.459541493     -1.590284464
H       -2.845071612      1.448026402     -1.712976085
H       -1.089899972      2.114915397     -0.281586097
H        1.389180040      2.598197150     -1.424058341
H        0.891012115      3.563886968     -0.033623728
H        3.217851143      2.545664174      0.220449363
H        2.086736642      2.136764329      1.522371026
H        4.643342449      0.554811082      0.344845571
H        4.902197497     -1.898723007      0.050909392
H        2.886967730     -3.335674865     -0.232061383
H        0.615601324     -2.289966294     -0.238450096
H       -4.225374393      0.902062583      1.624027167
H       -2.741695878      0.409923708      2.477683516
H       -2.728477404      1.844691812      1.428200040
H       -3.073232515     -2.655536484     -0.490848260
H       -3.007279821     -2.439161993      1.274646734
H       -4.473364286     -1.973806412      0.374115439
Li      -0.269170114      2.093700357     -2.398841647
