27
LiSiC7H18
C        2.828037118     -1.290170325     -0.978426820
Si       1.518024307     -0.033640163     -0.477455267
H        1.327721090     -0.103434865      1.003202440
C        2.117799923      1.695172414     -0.930269857
C       -0.094438961     -0.454947220     -1.388007419
C       -1.444483028     -0.026384180     -0.772904107
C       -1.420046569      1.460241251     -0.400490051
C       -2.558066037     -0.266217324     -1.799624526
C       -1.738644217     -0.858989808      0.479868723
H        3.796829116     -1.065320581     -0.508992988
H        2.533956536     -2.307285863     -0.680451523
H        2.970515277     -1.284810139     -2.069859167
H        2.276058270      1.769711898     -2.017230123
H        1.396049753      2.470823731     -0.638534995
H        3.074471857      1.916301933     -0.434223184
H        0.003812884     -0.005338284     -2.393907007
H       -0.110558279     -1.546663936     -1.555037347
H       -1.157465055      2.081964220     -1.271448441
H       -2.405888975      1.786834438     -0.035183813
H       -0.687952963      1.660394951      0.398630688
H       -2.588467570     -1.324151212     -2.102828302
H       -3.543017656     -0.002522119     -1.383227871
H       -2.396095394      0.341053314     -2.703644062
H       -0.962328939     -0.719638357      1.246602261
H       -2.705527601     -0.568957458      0.919453615
H       -1.786585069     -1.931152146      0.233406297
Li       1.023382178     -0.215052754      3.371116981
