16
LiSiC4H10
C        2.290403624      0.198441759     -1.166994798
Si       0.545899770      0.158425199     -0.478999703
H        0.589436424      0.059769385      1.008487492
C       -0.761712765      1.401554713     -1.061148876
C       -1.755496816      0.203649252     -1.051295542
C       -0.769316517     -0.988764488     -1.219459784
H        2.846328522      1.061653604     -0.772261204
H        2.840686578     -0.712787589     -0.889773368
H        2.274737976      0.271121232     -2.263712630
H       -1.047915663      2.280664806     -0.470507109
H       -0.554534196      1.721774244     -2.094539315
H       -2.245210374      0.140030470     -0.067201287
H       -2.553896569      0.256281572     -1.807637695
H       -0.563737956     -1.171210170     -2.286141791
H       -1.061328992     -1.936258505     -0.749793018
Li       0.659205261     -0.098329613      3.392231819
