25
LiSiC7H16
C        3.789230565     -0.019299101      0.304902486
C        2.503697565     -0.341575101     -0.395349514
C        1.629615118      0.564706512     -0.844602314
C        0.399622187      0.266610426     -1.645259460
Si      -1.168045730      0.271180951     -0.567993216
C       -1.278744329      1.903178418      0.366657022
C       -2.678003724      0.062616159     -1.675252172
C       -1.060108732     -1.156445395      0.653421921
H        4.656452565     -0.205800101     -0.347592514
H        3.816788565      1.033762899      0.618114486
H        3.925934565     -0.646320101      1.199926486
H        2.382429565     -1.371558101     -0.754846514
H        1.791413909      1.616319083     -0.573317423
H        0.267323321      1.007239393     -2.451509187
H        0.476683953     -0.724197203     -2.123086690
H       -1.304536656      2.758574952     -0.325601904
H       -2.189415156      1.940789081      0.983359062
H       -0.414014305      2.030766702      1.035111820
H       -2.627969891     -0.880983282     -2.239213523
H       -3.602514631      0.049559885     -1.078225398
H       -2.756393618      0.886940923     -2.400046134
H       -0.150204527     -1.070127831      1.266271776
H       -1.928925125     -1.168382092      1.328701002
H       -1.025945780     -2.123304653      0.128387397
Li       4.090644969     -0.673303275     -1.965573496
