14
LiC3NH9
C        0.857037656      1.081807595      0.367634951
N       -0.000086344      0.000029595     -0.055459049
C        0.508854656     -1.282839405      0.367848951
C       -1.365389344      0.200926595      0.368001951
H        1.874143656      0.932587595     -0.023126049
H        0.479932656      2.038070595     -0.023199049
H        0.926255656      1.168844595      1.475828951
H        0.548139656     -1.386552405      1.476060951
H       -0.127077344     -2.089763405     -0.024315049
H        1.526391656     -1.433198405     -0.021217049
H       -1.744953344      1.156168595     -0.023009049
H       -2.004243344     -0.604268405     -0.022912049
H       -1.475236344      0.217129595      1.476186951
Li      -0.001225972      0.000307723     -2.134458718
