50
LiBC19H20SO2F6
C        3.559040720      4.084555338     -2.387367294
C        3.178031499      3.065781541     -1.357168186
S        2.300697267      1.628076743     -1.772094223
C        3.442054480      3.077142124     -0.013712040
C        2.933334164      1.924696740      0.667958258
C        2.281607578      1.032084908     -0.145354114
B        1.542937578     -0.373189092      0.252020886
C       -0.084709422     -0.183492092      0.133860886
C       -0.767172422      0.771177908      0.905318886
C       -2.151102422      0.906648908      0.836334886
C       -2.874933422      1.946140908      1.638721886
F       -3.321530422      2.952576908      0.870969886
F       -3.960476422      1.441073908      2.247493886
F       -2.113530422      2.493205908      2.587962886
C       -2.907890422      0.096883908     -0.016337114
C       -2.243633422     -0.843717092     -0.792363114
C       -3.009914422     -1.744192092     -1.714496114
F       -4.328056422     -1.496144092     -1.698317114
F       -2.610441422     -1.622968092     -2.986312114
F       -2.859100422     -3.036541092     -1.395748114
C       -0.851896422     -0.981535092     -0.716906114
O        1.942666578     -1.516447092     -0.594445114
C        2.847410578     -2.301546092      0.138535886
C        2.772064578     -3.742411092     -0.354873114
C        4.268689578     -1.758494092     -0.060474114
C        2.353869578     -2.093507092      1.612962886
C        1.134555578     -2.970856092      1.926137886
C        3.429997578     -2.314007092      2.671499886
O        1.965900578     -0.744215092      1.622014886
H        4.208629385      3.655709164     -3.166692009
H        2.675874257      4.506196878     -2.892335700
H        4.103207774      4.912133051     -1.910531920
H        3.989275944      3.889775886      0.469670332
H        3.045756478      1.733650642      1.736519097
H       -0.191593422      1.417303908      1.573586886
H       -3.992533422      0.198470908     -0.067082114
H       -0.335206422     -1.733951092     -1.320473114
H        3.148258578     -3.794440092     -1.387604114
H        3.382434578     -4.412802092      0.271632886
H        1.733287578     -4.098557092     -0.354413114
H        4.351144578     -0.747214092      0.363265886
H        5.031875578     -2.408071092      0.396715886
H        4.459693578     -1.688930092     -1.141442114
H        1.398267578     -4.033808092      2.043155886
H        0.684743578     -2.609524092      2.862561886
H        0.383579578     -2.873860092      1.128766886
H        4.243747578     -1.588105092      2.547189886
H        2.994514578     -2.168974092      3.671716886
H        3.843734578     -3.334067092      2.616399886
Li       0.101045595      1.602351815     -0.263650763
