42
LiSiC12H28
C        0.539639889      7.952817398     -0.273423281
C        0.505119097      6.666954691     -1.091502685
C        0.538693076      5.410277115     -0.226490492
C        0.504678999      4.115689480     -1.031798063
C        0.538375025      2.860074260     -0.163797197
C        0.504276683      1.559064125     -0.971010860
Si       0.545282912     -0.003061781      0.086242734
H        1.783545853     -0.003709860      0.921983052
H       -0.621453008     -0.001019032      1.019238194
C        0.500884478     -1.566852952     -0.968408855
C        0.532160526     -2.866588384     -0.159030339
C        0.495737862     -4.123570814     -1.024939726
C        0.526943580     -5.416886759     -0.217477992
C        0.490640662     -6.674926831     -1.080396941
C        0.522372053     -7.959497720     -0.260177914
H       -0.320626603      8.006200571      0.410834128
H        1.452465118      8.004216751      0.339132520
H        0.514681988      8.844453045     -0.915270692
H       -0.401651074      6.648415260     -1.719121346
H        1.358207471      6.646446246     -1.790287821
H        1.446246106      5.425070895      0.402573667
H       -0.315067250      5.427041537      0.473798974
H       -0.403119491      4.097956602     -1.660094362
H        1.358739418      4.095985350     -1.731341729
H        1.444878496      2.883321679      0.465857194
H       -0.314272628      2.885289902      0.536995062
H       -0.403074724      1.530497078     -1.598915368
H        1.357898910      1.528526816     -1.670126936
H       -0.406403924     -1.537362053     -1.596361690
H        1.354569709     -1.539332315     -1.667573259
H        1.438612544     -2.890754920      0.470663519
H       -0.320538580     -2.888786698      0.541801387
H       -0.412021138     -4.104913726     -1.653266316
H        1.349837771     -4.106884978     -1.724513683
H        1.434463501     -5.432602950      0.411611565
H       -0.326849855     -5.430632308      0.482836871
H       -0.416088270     -6.655464297     -1.708047234
H        1.343770276     -6.657433311     -1.779213709
H        0.495477873     -8.852144404     -0.900540094
H        1.435084684     -8.011858270      0.352464256
H       -0.338007038     -8.009874450      0.424165864
Li      -2.488034594      0.002249024      2.511874286
