35
LiC10PN2H21
H       -0.019649248      0.992881700      0.967853753
P       -0.076915419      0.941758975     -0.510958877
N        1.134465620     -0.274331525     -0.772707142
C        2.571334848     -0.009009537     -0.610024539
C        2.869266767      1.414822736     -1.085262061
C        2.984103970     -0.159409553      0.861371387
C        3.360728949     -0.989868624     -1.483283991
C        0.595753690     -1.532823606     -0.440614131
C       -0.745945679     -1.531789229     -0.388693351
N       -1.306772440     -0.272449463     -0.678236662
C       -2.726362365     -0.004925300     -0.405015446
C       -3.024419033     -0.154777337      1.093886856
C       -3.057937048      1.419392318     -0.855891463
C       -3.582390251     -0.984515886     -1.214601729
H        2.392612782      2.168199429     -0.439152971
H        3.953375981      1.593656330     -1.062833169
H        2.506368176      1.561322789     -2.112728728
H        2.797831454     -1.183975451      1.215691746
H        4.053483513      0.062486169      0.992212605
H        2.405336525      0.526544065      1.497857329
H        3.060506481     -0.884126275     -2.535302061
H        4.438479314     -0.788933572     -1.397473728
H        3.192094475     -2.032497146     -1.179553248
H        1.236651780     -2.406513631     -0.346077387
H       -1.378965709     -2.404497132     -0.244858811
H       -2.397139497      0.530245513      1.683702493
H       -4.080146222      0.068756756      1.306965975
H       -2.812900366     -1.179649881      1.432814582
H       -2.775300001      1.565395697     -1.908338952
H       -4.136793297      1.599893412     -0.749761621
H       -2.531618035      2.171995773     -0.248595197
H       -3.392393220     -2.027420863     -0.924748227
H       -4.649975472     -0.781925867     -1.045770782
H       -3.364202853     -0.879172173     -2.286680137
Li       0.072777684      1.075393182      3.354640111
