20
LiC9H10
C        2.748517249      0.913127191      0.451261984
C        2.520083249     -0.414654809     -0.207180016
C        1.371570771     -1.103816085     -0.273159934
C        0.015490304     -0.631476084      0.075455786
C       -0.427984419      0.669525636     -0.207693871
C       -1.717026874      1.073972362      0.133973273
C       -2.590821173      0.185445639      0.758827597
C       -2.170823813     -1.117578922      1.027597748
C       -0.884700819     -1.521541605      0.681654497
H        1.848788249      1.279481191      0.962504984
H        3.560164249      0.833930191      1.188878984
H        3.060135249      1.676919191     -0.280179016
H        3.420739249     -0.993433809     -0.436377016
H        1.429876873     -2.149416362     -0.592033886
H        0.236240813      1.360793329     -0.728027810
H       -2.044228846      2.088483741     -0.099997322
H       -3.600193692      0.503798527      1.023773721
H       -2.851509789     -1.823488653      1.506216089
H       -0.560990159     -2.543869359      0.889613853
Li       3.532997362     -0.861164403      1.759716824
