22
LiC7H14
C       -1.395035971      1.283150643      0.169227762
C       -0.872784925      0.082824099     -0.104324071
C       -1.776694260     -1.116009166     -0.257586461
C        0.628679019     -0.155426063     -0.281088201
C        1.416375069      1.155989748     -0.304347248
C        1.147026471     -1.010092281      0.888847195
C        0.882262583     -0.901830527     -1.600764571
H       -2.480645971      1.403157643      0.185784762
H       -0.800350971      2.196459643      0.145895762
H       -1.797128826     -1.463481206     -1.301900343
H       -1.439760571     -1.964664639      0.356371876
H       -2.804993539     -0.869664262      0.036142526
H        1.317727478      1.701790255      0.645190375
H        2.484780796      0.945577102     -0.459938022
H        1.074468950      1.813184831     -1.117605073
H        0.661575054     -1.995867824      0.924396395
H        2.229919034     -1.177718791      0.782804045
H        0.968464567     -0.503459497      1.848683741
H        0.477110547     -0.337329382     -2.454597807
H        1.963502998     -1.033466629     -1.757909053
H        0.422590832     -1.900607582     -1.599343695
Li      -1.963867546      2.295391463     -1.766191614
