17
LiC8N3H5
H       -2.602709578      1.758108695     -0.431700501
C       -2.209171578      0.744313695     -0.431674501
C       -0.790838047      0.431901575     -0.410010380
C        0.139694748      1.486833333     -0.399868642
C        1.502204851      1.232086512     -0.379199867
C        1.971972000     -0.089112524     -0.368084256
C        3.385820181     -0.356521846     -0.346624836
N        4.520724195     -0.571629560     -0.329397575
C        1.052616991     -1.147767779     -0.378050183
C       -0.309651423     -0.890450029     -0.398724682
N       -3.096197578     -0.210892305     -0.431645501
N       -3.839851578     -1.060156305     -0.431646501
H       -0.217281412      2.517935449     -0.408403318
H        2.215004065      2.057075548     -0.371485100
H        1.416231316     -2.175675407     -0.369429031
H       -1.009341559     -1.728310948     -0.406205154
Li      -1.736201234      1.307941271      1.702024635
