21
LiSiC5H14
C        0.372595963     -0.691741353      2.835377548
C        0.308654986     -1.472723053      1.519714048
Si       0.370679286     -0.385420798     -0.024178852
H       -0.808759460      0.535941704     -0.008640164
C        1.944026830      0.653548732     -0.031032574
C        0.282630399     -1.453760849     -1.579998708
C        0.324552849     -0.656735867     -2.886897709
H        0.305226045     -1.354332967      3.710548235
H        1.314653009     -0.129694907      2.922501428
H       -0.449932472      0.036056884      2.907808870
H        1.139863975     -2.196240016      1.463948937
H       -0.615867667     -2.072401817      1.476922152
H        2.001803385      1.295980404      0.859807238
H        2.834160002      0.005735952     -0.042468894
H        1.986904202      1.306836344     -0.914791014
H        1.114584190     -2.177820495     -1.547052605
H       -0.641105056     -2.054013186     -1.529029663
H        0.242430433     -1.308578419     -3.768854216
H       -0.499000993      0.071809511     -2.936599797
H        1.265072035     -0.093568894     -2.982943945
Li      -2.692093554      2.007178273      0.016172096
