15
LiC6NH4O3
O       -3.333985271     -0.054270643      0.324221329
C       -2.096402034     -0.051673691      0.308563341
C       -1.303110537      1.176335658      0.298437491
C        0.066991540      1.173885677      0.281067920
C        0.780284332     -0.045637234      0.272079807
N        2.199494167     -0.042659155      0.254086519
O        2.792276350      1.031401105      0.246582286
O        2.796779163     -1.114222171      0.246616497
C        0.072116331     -1.268142946      0.281102154
C       -1.297963400     -1.276342942      0.298471582
H       -1.864354977      2.113654006      0.305506148
H        0.640742559      2.101154679      0.273752768
H        0.649754165     -2.192995867      0.273812151
H       -1.855268833     -2.216008462      0.305567054
Li      -4.006279377      0.255612212     -1.524041166
