10
LiC2NH4O2
N       -1.637023556      0.168413631     -0.136352799
C       -0.439004019     -0.660924524      0.016559036
C        0.914932506      0.126655809     -0.070887193
O        0.798552885      1.370299698     -0.042825067
O        1.935181473     -0.578276036     -0.124813477
H       -1.360818556      1.064576631      0.281250201
H       -1.689442556      0.435925631     -1.121420799
H       -0.455654881     -1.165471388      1.000058151
H       -0.420266741     -1.470036941     -0.731554191
Li      -3.272719253     -0.856299146      0.636113583
