15
LiC4NH9
H       -0.359873505     -2.029971952      0.511321107
N       -0.181570505     -1.128792952      0.081870107
C       -1.276511505     -0.172086952      0.266622107
C       -0.581489505      1.191805048      0.469015107
C        0.873835495      0.929756048      0.067024107
C        1.065278495     -0.515991952      0.512318107
H       -1.931254505     -0.164962952     -0.620144893
H       -1.917451505     -0.410112952      1.134161107
H       -1.051501505      1.997658048     -0.110035893
H       -0.621844505      1.482859048      1.529330107
H        0.988201495      0.989665048     -1.025558893
H        1.585175495      1.626980048      0.529555107
H        1.226783495     -0.546695952      1.611203107
H        1.930459495     -1.000950952      0.035360107
Li      -0.024449796     -1.572772289     -1.943083332
