39
LiC14PH23
C       -2.704165356     -1.707025713     -0.619228288
C       -1.404113356     -1.511757713      0.179259712
C       -1.743511356     -1.533440713      1.671493712
C       -0.471594356     -2.686823713     -0.147886288
P       -0.580626356      0.040061287     -0.559487288
C       -1.169564356      1.592394287      0.369252712
C       -0.768494356      1.723251287      1.840085712
C       -0.532655356      2.756628287     -0.405529288
C       -2.693064356      1.689374287      0.228818712
C        1.191047644     -0.064980713     -0.030846288
C        2.142333644      0.203171287     -1.024732288
C        3.510041644      0.156251287     -0.749912288
C        3.951508644     -0.175915713      0.528247712
C        3.019455644     -0.453492713      1.529269712
C        1.655340644     -0.392374713      1.252747712
H       -3.419676356     -0.889339713     -0.453753288
H       -2.499546356     -1.764112713     -1.697945288
H       -3.190576356     -2.646264713     -0.308150288
H       -2.199729356     -2.506735713      1.919922712
H       -0.860293356     -1.417181713      2.313934712
H       -2.471194356     -0.755277713      1.940792712
H       -0.162305356     -2.671220713     -1.204992288
H        0.437133644     -2.675604713      0.469660712
H       -1.001782356     -3.635415713      0.036640712
H        0.323858644      1.762742287      1.953916712
H       -1.176184356      2.666533287      2.241852712
H       -1.154299356      0.905736287      2.463200712
H       -0.838598356      2.750089287     -1.462031288
H       -0.848013356      3.713874287      0.041183712
H        0.566724644      2.711054287     -0.364509288
H       -3.213381356      0.942250287      0.845220712
H       -3.030473356      2.684743287      0.561466712
H       -3.010682356      1.557176287     -0.817177288
H        1.798369644      0.447533287     -2.032719288
H        4.230845644      0.370840287     -1.540678288
H        5.019820644     -0.221737713      0.745925712
H        3.356761644     -0.716465713      2.533300712
H        0.943911644     -0.602237713      2.051690712
Li      -0.797035806      0.181131455     -2.855902966
