15
LiC3N2H8O
C       -1.575115969     -1.337626705      0.050607186
N       -0.824936969     -0.126761705     -0.224924814
C       -1.575913969      1.083615295      0.050558186
N        0.405682031     -0.126318705      0.400711186
C        1.567711031     -0.125974705     -0.315253814
O        2.666974031     -0.127039705      0.173932186
H       -2.496432969     -1.336887705     -0.547280814
H       -0.973602969     -2.210540705     -0.231712814
H       -1.854496969     -1.429029705      1.120989186
H       -1.855357969      1.174876295      1.120937186
H       -0.974981969      1.956918295     -0.231796814
H       -2.497228969      1.082236295     -0.547329814
H        0.467982108     -0.130877818      1.421305258
H        1.358545031     -0.127401705     -1.408932814
Li      -0.537450779     -0.126783616     -2.283951936
