67
LiC26PN2H37
H        0.085386684     -1.247648124     -0.910056567
P       -0.135841488      0.190096900     -0.823161787
N       -1.352592055      0.171107983      0.401645801
C       -2.643101653      0.770213724      0.275306746
C       -2.805041361      2.154974070      0.459870001
C       -1.628277443      3.072461694      0.745302420
C       -1.466037601      4.112877256     -0.367886581
C       -1.766886786      3.735511030      2.118618332
C       -4.094157301      2.691027067      0.358724270
C       -5.187535258      1.878780019      0.083690006
C       -5.011451177      0.509030620     -0.102674055
C       -3.742351411     -0.065853037     -0.012105709
C       -3.515822080     -1.544799543     -0.271308441
C       -4.712535082     -2.421592645      0.093044391
C       -3.120619171     -1.756654951     -1.738195554
C       -0.761488811      0.008517530      1.679401019
C        0.572197616      0.180825497      1.663855406
N        1.071227552      0.515119474      0.392832775
C        2.457637376      0.626526160      0.086028601
C        3.291611643     -0.506235752      0.148342205
C        2.764871531     -1.881252529      0.527017117
C        2.965150568     -2.885133529     -0.612784867
C        3.406152039     -2.384432685      1.823821095
C        4.648407747     -0.351841275     -0.161781384
C        5.157524223      0.878819426     -0.553817733
C        4.316526061      1.987845702     -0.632002429
C        2.963351041      1.886610459     -0.307670206
C        2.057611006      3.106429154     -0.294410028
C        1.864184520      3.581246609      1.151680148
C        2.554407539      4.252270633     -1.172692473
H       -0.714517233      2.460412771      0.762709877
H       -2.345619748      4.772037585     -0.430027546
H       -0.586725435      4.747413425     -0.178485160
H       -1.336471126      3.626203254     -1.346051120
H       -2.664768010      4.371245272      2.163993337
H       -1.845111083      2.978993725      2.912597816
H       -0.894273491      4.369736420      2.333456203
H       -4.241121289      3.764542429      0.497805864
H       -6.185607563      2.314195346      0.011361545
H       -5.876411575     -0.119326720     -0.319500519
H       -2.660945693     -1.851655109      0.350291822
H       -5.561293593     -2.252740025     -0.586910709
H       -4.439274939     -3.483557040      0.012281237
H       -5.054472688     -2.231513183      1.120584891
H       -2.886607634     -2.813483369     -1.935059738
H       -3.946053429     -1.454344983     -2.401091540
H       -2.242069778     -1.153413046     -2.013074973
H       -1.391573779     -0.192419474      2.543898031
H        1.253102058      0.122980016      2.512201535
H        1.683586732     -1.798318331      0.701594964
H        2.526862922     -3.858720680     -0.347145892
H        2.486846381     -2.532759614     -1.538037089
H        4.033928454     -3.043700440     -0.823394433
H        3.241790444     -1.678642548      2.651057028
H        2.983035594     -3.357874591      2.112888823
H        4.493287113     -2.511786603      1.705234665
H        5.311776058     -1.218176960     -0.110392532
H        6.214817510      0.978423994     -0.804362608
H        4.727503212      2.948415990     -0.943718052
H        1.074470532      2.793885555     -0.680129585
H        1.207414835      4.464105370      1.187993845
H        1.417125617      2.793734766      1.776055206
H        2.834443078      3.861086027      1.590685979
H        2.764235433      3.915852552     -2.198254879
H        1.791982094      5.043195813     -1.222541756
H        3.470280531      4.707110662     -0.765456921
Li       0.448215381     -3.605644168     -1.052569699
