16
LiC5N2H8
C        2.371161405     -0.458759358     -0.581422745
C        0.957137979      0.018297224     -0.532299628
N        0.616912026      1.336199526     -0.450566613
H        1.254934026      2.119947526     -0.450575613
C       -0.757507675      1.408400373     -0.425550475
C       -1.191805078      0.107161084     -0.494596429
C       -2.593405078     -0.410928563     -0.503481425
N       -0.111655719     -0.738746312     -0.560112698
H        2.930713380     -0.166393115      0.319453580
H        2.357327468     -1.551902442     -0.644839914
H        2.903857107     -0.062890089     -1.458734222
H       -1.294078648      2.349839456     -0.362715202
H       -2.787447356     -0.984861223     -1.420954574
H       -2.760692119     -1.087562439      0.346808519
H       -3.319442141      0.410152838     -0.444789289
Li      -0.153041068     -2.813869217     -0.680084280
