23
LiC8H14
C        3.449335625     -0.535163894     -0.784183514
C        2.095822076     -0.053159191     -0.275041981
C        0.981099955     -1.068149065     -0.510291308
C       -0.388051478     -0.629415800      0.008569168
C       -1.013580919      0.539866021     -0.723849309
C       -2.318458315      0.356784439     -0.937384242
C       -2.795936973     -0.959996958     -0.373015314
C       -1.476108409     -1.715556484     -0.132086379
H        3.747748263     -1.468856715     -0.283728523
H        3.413310995     -0.736917295     -1.865303347
H        4.238593928      0.208669213     -0.607225271
H        2.159968808      0.167626905      0.803751246
H        1.837174725      0.899729706     -0.765303695
H        0.898281136     -1.284205167     -1.590515801
H        1.254459174     -2.021750225     -0.025102936
H       -0.271182777     -0.350241683      1.074311891
H       -0.459922448      1.439877731     -0.999754084
H       -2.981174043      1.081220866     -1.414542163
H       -3.347301848     -0.788962735      0.568369084
H       -3.481418826     -1.498834029     -1.044015011
H       -1.241876617     -2.319790609     -1.023586174
H       -1.511154311     -2.397515735      0.728752014
Li      -0.019065652      0.252011743      3.373404705
