21
LiC8H10O2
C       -3.529479821     -0.305742795      0.725266693
O       -2.291945048     -0.955882627      0.614713977
C       -1.185193795     -0.205613520      0.418100129
C       -1.195147608      1.193716853      0.316495141
C        0.012657322      1.856726354      0.113359447
C        1.222438691      1.174710531      0.008851490
C        1.216598253     -0.224495732      0.112465533
O        2.325575738     -0.992183953      0.027126197
C        3.561269442     -0.361486389     -0.177024943
C        0.016719952     -0.906485492      0.315997327
H       -4.282061683     -1.087028465      0.878978026
H       -3.548456119      0.386481426      1.583555522
H       -3.775544591      0.256038628     -0.191275112
H       -2.119021774      1.763483878      0.392696380
H        0.011057203      2.945152466      0.033541759
H        2.152956691      1.738732531      0.008880490
H        3.578634738      0.198225293     -1.127085287
H        3.805279678      0.328668513      0.647801008
H        4.316184040     -1.154622819     -0.215136426
H        0.018317366     -1.992649324      0.395653985
Li       2.099859019      1.731643362      2.012350527
