29
LiC12NH15
C       -0.325752329      2.288105718     -0.675584159
N       -0.272156212      0.843159924     -0.692674614
C        0.971949811      0.195087433     -0.828815465
C        1.122145856     -0.906875656     -1.683610767
C        2.355505210     -1.539745455     -1.811242690
C        3.469120341     -1.069791597     -1.115597449
C        3.333157759      0.041215594     -0.284559945
C        2.096832066      0.664350319     -0.133884138
C       -1.445703277      0.175689019     -0.381130436
C       -2.657970618      0.739635039     -0.186733754
C       -3.696766006     -0.301340523      0.149848759
C       -2.836211278     -1.503496798      0.575713449
C       -1.510776928     -1.326500593     -0.180142128
H       -1.092525008      2.642653563     -1.383187678
H       -0.586898733      2.676667396      0.324819684
H        0.642102758      2.697211885     -0.985213294
H        0.266752839     -1.246756754     -2.266864664
H        2.450665678     -2.396315375     -2.480741867
H        4.436440982     -1.561490972     -1.225014617
H        4.194896728      0.419324740      0.268130597
H        1.992949782      1.513742330      0.543241696
H       -2.903616618      1.775045039     -0.416412754
H       -4.388906389      0.015386871      0.944750706
H       -4.320803312     -0.545675451     -0.729864753
H       -2.640075940     -1.435243403      1.656084096
H       -3.311227857     -2.475052448      0.383106803
H       -1.537666604     -1.843201745     -1.154221122
H       -0.640757114     -1.720852053      0.364718935
Li      -3.792363214      0.734142963     -2.137931406
