23
LiC8H7S2O5
O        5.447981000      0.738608000      1.386460000
S        4.281636000      0.296205000      2.154519000
C        3.587156000     -1.175530000      1.305159000
C        2.201624000     -1.139600000      1.248633000
C        1.482422000     -2.161880000      0.644070000
C        2.188674000     -3.234285000      0.094234000
C        3.585650000     -3.271287000      0.152686000
C        4.299359000     -2.236137000      0.761126000
S        1.509134000      0.361181000      2.046087000
O        1.258702000     -0.016031000      3.432761000
O        0.397322000      0.824342000      1.219741000
C        2.920396000      1.406201000      1.896829000
O        2.985699000      1.767429000      0.540746000
C        3.472548000      3.065955000      0.355317000
O        4.460344000     -0.087510000      3.549920000
H        0.393588000     -2.101556000      0.589619000
H        1.647884000     -4.045200000     -0.398482000
H        4.121995000     -4.110854000     -0.294754000
H        5.390596000     -2.235145000      0.796891000
H        3.423822000      3.284107000     -0.722264000
H        4.520085000      3.142657000      0.690931000
H        2.863412000      3.800651000      0.909211000
Li       2.901671936      3.179135605      3.293396684
