44
LiBC17H19SO2F3
C        2.387101691      4.801579331     -0.573760435
C        1.928146694      3.480491642     -0.035896594
S        1.356977087      2.214156922     -1.074648770
C        1.879854106      3.066712851      1.268529414
C        1.378310614      1.733550437      1.416248358
C        1.040736919      1.121443863      0.235802481
B        0.366690919     -0.360547137     -0.050919519
C       -1.252525081     -0.213665137     -0.093121519
C       -1.907205081      0.294708863     -1.224661519
C       -3.291762081      0.439078863     -1.268170519
C       -4.058182081      0.071001863     -0.159840519
C       -5.549113081      0.163847863     -0.204314519
F       -6.133264081     -1.006190137     -0.519475519
F       -6.075598081      0.524863863      0.976139481
F       -5.984443081      1.050502863     -1.111282519
C       -3.433655081     -0.440364137      0.980360481
C       -2.047920081     -0.578911137      1.003042481
O        0.815983919     -0.857606137     -1.367774519
C        2.138090919     -1.275658137     -1.396367519
C        2.431260919     -2.337098137     -0.319589519
C        1.578256919     -3.577995137     -0.575644519
C        3.914320919     -2.686984137     -0.321659519
C        2.040769919     -1.708786137      1.031335481
O        0.722140919     -1.279879137      1.045152481
H        3.219179976      4.688062758     -1.286567458
H        1.577548988      5.332872833     -1.098978953
H        2.731728688      5.442235044      0.250442332
H        2.196266835      3.703484273      2.098115419
H        1.260550902      1.222227711      2.373748145
H       -1.305598081      0.576774863     -2.093079519
H       -3.785234081      0.841166863     -2.155141519
H       -4.038653081     -0.723842137      1.844952481
H       -1.549176081     -0.989347137      1.884223481
H        2.364464919     -1.697554137     -2.395714519
H        2.838983919     -0.424826137     -1.235317519
H        1.820240919     -4.025007137     -1.554281519
H        1.749216919     -4.339302137      0.203685481
H        0.515118919     -3.303146137     -0.570527519
H        4.532837919     -1.794608137     -0.133971519
H        4.144343919     -3.430551137      0.459309481
H        4.217447919     -3.112746137     -1.292395519
H        2.188491919     -2.456042137      1.836273481
H        2.743230919     -0.868719137      1.231089481
Li      -1.124749339      1.559138516     -0.225870188
