39
LiBC18H13SO2F3
C        1.760006457      5.293282887     -0.426153927
C        1.661296600      3.880845955      0.063912141
S        0.682292264      2.700800358     -0.743411758
C        2.279817618      3.312589933      1.145194603
C        1.959988311      1.927002172      1.310112774
C        1.103765685      1.432464062      0.359693915
B        0.528597685     -0.082887938      0.212037915
C       -1.099137315     -0.120328938      0.171693915
C       -1.793706315     -0.862180938     -0.792801085
C       -3.186880315     -0.921891938     -0.807735085
C       -3.916244315     -0.231326938      0.160360915
C       -5.408642315     -0.333520938      0.190891915
F       -5.840333315     -1.344409938      0.963868915
F       -5.985979315      0.774357062      0.678088915
F       -5.932591315     -0.545940938     -1.024442085
C       -3.251319315      0.520699062      1.132498915
C       -1.860897315      0.573227062      1.125215915
O        1.095725685     -0.781527938     -0.998094085
C        1.909761685     -1.743809938     -0.557672085
C        1.881737685     -1.817911938      0.856766915
C        2.641102685     -2.758498938      1.532501915
C        3.446462685     -3.636297938      0.778686915
C        3.476192685     -3.561634938     -0.607903085
C        2.701306685     -2.606673938     -1.297050085
O        1.058316685     -0.899309938      1.365462915
H        0.774621014      5.783515523     -0.461947737
H        2.405393002      5.877424727      0.244828829
H        2.188707412      5.345571086     -1.439281071
H        2.945183938      3.876444490      1.802600735
H        2.344210261      1.291015693      2.108494472
H       -1.214648315     -1.396005938     -1.549898085
H       -3.714296315     -1.495234938     -1.572828085
H       -3.828760315      1.069824062      1.878823915
H       -1.340605315      1.176733062      1.874575915
H        2.605266685     -2.803787938      2.621786915
H        4.052781685     -4.383129938      1.295614915
H        4.106411685     -4.249206938     -1.176016085
H        2.712387685     -2.534931938     -2.385452085
Li      -1.020399360      1.697670821      1.074982135
