21
LiC9N2H7O2
C        2.985242388      1.639824494      0.546382950
C        2.307855388      0.292511494      0.546402950
C        3.122857388     -0.864545506      0.546428950
N        3.803642388     -1.810841506      0.546131950
C        0.917615104      0.168433621      0.451807507
C        0.246829385     -1.107302323      0.399532639
C       -1.116354839     -1.209605623      0.306890501
C       -1.917574630     -0.046945766      0.259116772
N       -3.333471675     -0.153861633      0.162883284
O       -3.837536657     -1.269199027      0.122744809
O       -4.002062200      0.872239162      0.123341051
C       -1.305949555      1.218167979      0.307346014
C        0.061472277      1.326153703      0.400305399
H        2.715774388      2.243003494     -0.339885050
H        2.715764388      2.243031494      1.432626950
H        4.077462388      1.524488494      0.546390950
H        0.858099895     -2.011266711      0.435893935
H       -1.610391402     -2.179911113      0.268220724
H       -1.943332465      2.101244476      0.269115025
H        0.510158960      2.319499609      0.436045221
Li       3.179632045      0.397719099     -1.532776172
