23
LiC9NH9SO2
C       -4.266956517     -0.103943862     -0.202477381
C       -2.773762539     -0.278289084     -0.139645673
C       -2.129436714     -1.226767054     -0.945199483
C       -0.752456281     -1.412314938     -0.871603536
C       -0.020921292     -0.629211444      0.018642279
C       -0.629971195      0.314966608      0.843495224
C       -2.007246040      0.485435838      0.751514581
S        1.736591265     -0.841823643      0.103560779
O        2.202014700     -0.397035435      1.404749972
O        2.092548983     -2.139766007     -0.450387606
C        2.383865466      0.353830722     -1.122352501
N        2.033659016      1.671443221     -0.800083466
C        1.702459641      2.750726170     -0.486146812
H       -4.755666230     -0.713440937      0.573401377
H       -4.551970594      0.942253562     -0.029810369
H       -4.665757931     -0.419907375     -1.175117933
H       -2.718543958     -1.832830289     -1.636438894
H       -0.241453036     -2.160989257     -1.479565351
H       -0.026363345      0.895305915      1.543225974
H       -2.500382103      1.224974731      1.385492820
H        3.472346904      0.200815466     -1.080334650
H        1.996895355      0.055907527     -2.106013659
Li       1.064534326      4.829540222      0.118528661
