30
LiSiC8H18O2
C        3.580910665     -0.143223683      0.319912972
C        2.305962665     -0.629288683     -0.307021028
C        2.279788665     -2.044313683     -0.807750028
C        1.396116757      0.255640070     -0.737772901
O        0.338655194     -0.067966217     -1.519637405
Si      -1.261972825      0.187597240     -0.996700123
C       -1.315742042     -0.163239225      0.839119413
C       -1.776404075      1.950203730     -1.363080347
C       -2.271838833     -1.022035338     -1.997572002
O        1.438324836      1.576255238     -0.390016820
C        1.692893177      2.447766448     -1.475027479
H        4.419043665     -0.217964683     -0.392125028
H        3.494759665      0.895951317      0.657761972
H        3.847672665     -0.767693683      1.188415972
H        2.482707665     -2.751745683      0.013392972
H        1.312200665     -2.294727683     -1.258701028
H        3.065732665     -2.203364683     -1.563953028
H       -0.657326585      0.537316729      1.374655092
H       -2.335437961     -0.052964411      1.237290584
H       -0.969382185     -1.185888221      1.051244001
H       -1.659212817      2.184312937     -2.431941424
H       -2.833327775      2.106097994     -1.097723844
H       -1.168814801      2.658187896     -0.780676003
H       -1.946519062     -2.053942821     -1.800770505
H       -3.342309251     -0.945540443     -1.755835172
H       -2.149022481     -0.826464274     -3.072988435
H        2.708060821      2.281694028     -1.871743375
H        0.962690495      2.296087077     -2.285065908
H        1.611258759      3.474056412     -1.097640286
Li       3.959284622     -0.786317723     -1.835391856
