18
LiC7NH9
N       -2.686095011      0.000550619     -0.174285157
C       -3.490090929     -0.002790994      0.939441602
C       -3.909678621      1.198829545      1.534669920
C       -4.722409650      1.185105141      2.663075315
C       -5.154084394     -0.009724115      3.247610915
C       -6.064144376     -0.013231975      4.449674276
C       -4.728268676     -1.201024473      2.651683382
C       -3.915655289     -1.207965378      1.523131777
H       -2.860810583      0.833336766     -0.712410389
H       -2.860510201     -0.829195623     -0.717181570
H       -3.587967401      2.150325628      1.105256842
H       -5.029205726      2.136932191      3.104771272
H       -7.124513090     -0.009362824      4.150533734
H       -5.900919343     -0.905506384      5.070079056
H       -5.896776682      0.872427344      5.078399490
H       -5.039760804     -2.155507855      3.084266104
H       -3.598747212     -2.156886104      1.084547448
Li      -0.695831123     -0.001288994      0.426620219
