14
LiC3NH9
N        1.882421176      0.015873354      0.172537339
C        0.600310554     -0.656200707      0.314392443
C       -0.544504818      0.344293203      0.235818694
C       -1.914840191     -0.313875455      0.330716254
H        2.032309176      0.631773354      0.970332339
H        2.639951176     -0.663100646      0.191003339
H        0.495863165     -1.377968120     -0.512738168
H        0.495191526     -1.243828917      1.250972681
H       -0.428155316      1.083071179      1.047885100
H       -0.444169884      0.904926072     -0.706155373
H       -2.061924538     -1.037166181     -0.485594596
H       -2.030688797     -0.857805100      1.280452703
H       -2.723188900      0.427561521      0.269506849
Li       1.896593467      1.076268455     -1.615646761
