20
LiC9NH9
C        3.303989471     -0.604314117      0.714314443
C        1.857049454     -0.199555407      0.582946239
C        1.528018489      1.174126438      0.464038545
C        0.221093939      1.611620702      0.340942069
C       -0.789999827      0.641272166      0.336779464
C       -0.499518416     -0.739185698      0.453379057
C       -1.758082802     -1.432171278      0.412306140
C       -2.730875857     -0.478138211      0.276965247
N       -2.154558174      0.769099068      0.231096713
C        0.842900028     -1.146031645      0.576820524
H        3.761660616     -0.156921496      1.609558951
H        3.405561664     -1.694841322      0.791608201
H        3.890280871     -0.269811168     -0.154810805
H        2.337178544      1.908406223      0.470245941
H       -0.009452610      2.674489510      0.250559201
H       -1.918547388     -2.504583492      0.475530714
H       -3.812609857     -0.587985211      0.277047247
H       -2.653509760      1.641049122      0.134983414
H        1.085380710     -2.207463095      0.667760590
Li      -1.085424921     -2.091844202     -1.638647786
