25
LiC9N2H12O
C       -2.723231586     -1.141540965      0.070577613
C       -1.248913467     -1.217587627      0.435622726
N       -0.551191836      0.004130053      0.061125478
C       -1.246364673      1.227168041      0.436085858
C       -2.720856316      1.154325803      0.071068526
O       -3.330473460      0.006914337      0.596771972
C        0.834510488      0.002673442      0.060889287
C        1.591233165      1.193631857      0.057759978
C        2.979628622      1.127095745      0.014070936
N        3.685740214     -0.000331265     -0.011986913
C        2.977266235     -1.126257020      0.014466889
C        1.588727355     -1.189865829      0.058175337
H       -2.826053543     -1.151310484     -1.032227048
H       -3.251339783     -2.013921161      0.477236957
H       -1.141772451     -1.412266580      1.521427874
H       -0.818989295     -2.069655189     -0.104398145
H       -1.138747334      1.421221802      1.521952612
H       -0.814735882      2.078555625     -0.103641281
H       -3.247123094      2.027627633      0.478141594
H       -2.823687884      1.164804304     -1.031728494
H        1.125191576      2.174927990      0.089179490
H        3.552239179      2.060445607      0.004922318
H        3.547910971     -2.060815126      0.005625307
H        1.120630874     -2.170170623      0.090033911
Li       5.764060296     -0.002521458     -0.065107876
