15
LiC4NH5O4
N       -0.321761003      1.510774176     -0.253555774
C       -0.451761730      0.054826303     -0.304052528
C        0.574851589     -0.685075936      0.583173304
C        2.083497269     -0.408815605      0.296892628
O        2.436634083      0.799545114      0.289046874
O        2.818603570     -1.403638487      0.132789534
C       -1.891219691     -0.377622641      0.148246143
O       -2.434241512      0.362871321      1.003148897
O       -2.334816600     -1.436277678     -0.340383349
H       -0.894123003      1.791388176      0.547592226
H        0.656364997      1.723278176     -0.033082774
H       -0.325590949     -0.308725506     -1.341531947
H        0.362856670     -0.367907376      1.623282272
H        0.391869828     -1.767907365      0.514456396
Li      -0.916375136      2.307154265     -2.079604455
