27
LiC6N4H14O2
N       -2.122177501      1.314709184      0.698807171
C       -2.182037354      0.084710935     -0.089464101
C       -0.943146693     -0.773742050      0.156147939
C        0.342239452     -0.023187291     -0.150173752
C        1.560654857     -0.772778102      0.349597015
N        2.783384098      0.007282589      0.101273270
C        4.003980652     -0.415210029      0.359459679
N        4.183053233     -1.625253752      0.898516485
N        5.071934271      0.349223863      0.083842447
H        4.959175740      1.256798921     -0.347353192
H        6.006787820      0.059091057      0.334108678
C       -3.431956503     -0.817485253      0.258904035
O       -3.474865728     -1.884986938     -0.369470434
O       -4.168644619     -0.359578025      1.148891946
Li      -2.967673358      2.864296382     -0.399444745
H       -2.828488501      1.135421184      1.427054171
H       -2.228837768      0.310769250     -1.169566562
H       -0.944627380     -1.057465163      1.225031107
H       -1.050099585     -1.696410237     -0.431943511
H        0.438659420      0.148304908     -1.236447957
H        0.265339120      0.956911874      0.353213536
H        1.465315036     -0.954098278      1.433533024
H        1.651216753     -1.743851334     -0.165946032
H        2.649481478      0.950393204     -0.250456562
H        3.381823672     -2.197773101      1.134377637
H        5.106427706     -2.003440309      1.056592614
H       -1.194410830      1.535619018      0.999552660
