49

C -3.604076 0.000684 -2.362203
C -3.361884 -0.255671 -0.877527
O -2.316692 0.562449 -0.429385
C -4.638842 0.071202 -0.089245
C -2.843231 -1.698682 -0.543689
C -3.944583 -2.737047 -0.353065
C -1.853638 -2.192924 -1.608755
O -2.174785 -1.504603 0.674638
B -1.590353 -0.142324 0.659249
C 0.008828 -0.168896 0.293148
C 0.622654 0.924420 -0.335052
C 1.992374 0.939239 -0.603442
C 2.588608 2.156758 -1.243752
F 2.537113 3.226913 -0.438010
F 3.878403 1.988049 -1.571977
F 1.946974 2.502092 -2.366781
C 2.799075 -0.148318 -0.270298
C 2.199360 -1.248928 0.337366
C 3.018054 -2.450723 0.702762
F 4.302006 -2.330245 0.335440
F 3.017319 -2.681741 2.023353
F 2.555479 -3.569476 0.129553
C 0.829244 -1.255584 0.616288
C -1.800931 0.583112 2.132744
C -1.157251 1.924306 2.191199
C -1.748831 3.104623 1.970722
C -1.028919 4.420154 1.899726
H -2.665558 -0.083496 -2.924944
H -4.340374 -0.705881 -2.779224
H -3.988381 1.023026 -2.497725
H -5.525275 -0.447171 -0.488660
H -4.509645 -0.205208 0.966586
H -4.805929 1.157191 -0.143698
H -4.578235 -2.818783 -1.251185
H -3.490788 -3.720303 -0.156628
H -4.572942 -2.475785 0.508116
H -1.100670 -1.419913 -1.818730
H -1.332067 -3.078067 -1.214406
H -2.356693 -2.466881 -2.549557
H -0.001974 1.776861 -0.620096
H 3.866470 -0.140488 -0.486539
H 0.369584 -2.132190 1.084319
H -2.886843 0.668702 2.302008
H -1.385224 -0.082509 2.909381
H -0.067488 1.934519 2.342904
H -2.831082 3.117657 1.790437
H -1.393551 5.139057 2.653615
H 0.051655 4.281632 2.054254
H -1.163116 4.900207 0.915732