15

C 0.000000 3.095064 0.000000
C -0.958804 1.902007 0.000000
Hg 0.000000 0.000000 0.000000
C 0.958804 -1.902007 0.000000
C 0.000000 -3.095064 0.000000
H 0.654332 3.096256 0.884885
H 0.654332 3.096256 -0.884885
H -0.543752 4.053702 0.000000
H -1.620135 1.945973 0.879629
H -1.620135 1.945973 -0.879629
H 1.620135 -1.945973 -0.879629
H 1.620135 -1.945973 0.879629
H -0.654332 -3.096256 0.884885
H -0.654332 -3.096256 -0.884885
H 0.543752 -4.053702 0.000000