31

C 3.124199 -1.620976 -0.018980
C 2.385985 -0.317525 0.017675
C 2.982939 0.881236 0.055650
O 1.046108 -0.510520 0.010779
Si -0.229787 0.605856 -0.024616
C -0.154248 1.705760 1.494908
C -0.145013 1.610071 -1.605509
C -1.755651 -0.515583 0.015442
C -1.675493 -1.515316 -1.145635
C -1.772660 -1.280794 1.345496
C -3.031663 0.325418 -0.114234
H 4.209402 -1.469981 -0.010625
H 2.840462 -2.181452 -0.922036
H 2.834152 -2.232974 0.847910
H 4.069555 0.945109 0.059327
H 2.416139 1.812096 0.087218
H 0.599661 2.499376 1.399635
H 0.093983 1.108784 2.384985
H -1.128243 2.189232 1.667217
H 0.792909 2.179558 -1.668027
H -0.979224 2.326301 -1.653947
H -0.200202 0.956931 -2.488574
H -0.754486 -2.114133 -1.091407
H -1.694424 -1.007935 -2.123094
H -2.536714 -2.204442 -1.114385
H -0.852186 -1.869596 1.477877
H -2.628912 -1.976126 1.374931
H -1.868474 -0.599344 2.205487
H -3.067050 0.871922 -1.069785
H -3.126665 1.060306 0.701019
H -3.921894 -0.325207 -0.074215