38

O -1.601760 -2.481747 -0.130429
C -1.406863 -1.263529 -0.169908
C -2.653045 -0.406141 0.010512
C -3.854689 -0.895493 -0.507650
C -5.054833 -0.218721 -0.295269
C -5.072499 0.945772 0.471481
C -3.881742 1.423838 1.021814
C -2.682394 0.755556 0.789319
C -0.109087 -0.645062 -0.279733
C 0.003900 0.737958 -0.683658
C 1.211893 1.552058 -0.220235
C 1.554403 2.690063 -0.957188
C 2.599800 3.516746 -0.549519
C 3.302487 3.227517 0.620647
C 2.949027 2.109772 1.378284
C 1.913178 1.276551 0.959389
O -0.836536 1.360288 -1.333736
C 1.084524 -1.496070 -0.162026
C 1.135992 -2.609483 0.706916
C 2.286614 -3.380147 0.835415
C 3.438240 -3.082274 0.102136
C 3.403655 -2.003553 -0.780641
C 2.247692 -1.240201 -0.919883
H -3.821948 -1.829072 -1.071487
H -5.983081 -0.606688 -0.721529
H -6.011358 1.475830 0.647126
H -3.887189 2.327891 1.634707
H -1.751183 1.133865 1.215583
H 0.965231 2.909018 -1.849341
H 2.864352 4.395849 -1.141780
H 4.119741 3.875079 0.945832
H 3.486156 1.883515 2.301713
H 1.639124 0.397602 1.545952
H 0.244204 -2.865446 1.277185
H 2.285467 -4.229580 1.523420
H 4.340089 -3.688970 0.206899
H 4.282468 -1.758850 -1.382577
H 2.236767 -0.419300 -1.639598