26

C -1.608446 2.227943 -0.032980
N -1.283460 0.825382 -0.171182
C -2.335084 -0.103567 0.186668
C -2.001330 -1.492863 -0.319391
C -0.647622 -1.893857 0.229105
N 0.347746 -0.887425 -0.078171
C 1.715936 -1.282536 0.197884
C 2.676874 -0.267951 -0.394304
C 2.330115 1.106107 0.165805
N 0.921931 1.414842 0.101558
C 0.056375 0.478498 -0.017026
H -1.578433 2.565752 1.019423
H -0.883962 2.828669 -0.590803
H -2.618545 2.393203 -0.433011
H -2.499399 -0.132498 1.284969
H -3.272105 0.255982 -0.264099
H -2.768900 -2.213587 -0.004620
H -1.964320 -1.479967 -1.418822
H -0.721804 -2.059413 1.324700
H -0.313602 -2.846027 -0.212504
H 1.889189 -1.378970 1.289716
H 1.871956 -2.280302 -0.241651
H 3.716722 -0.543573 -0.166343
H 2.559223 -0.266791 -1.489216
H 2.670723 1.169947 1.216340
H 2.888837 1.887343 -0.374074