17

O -3.157003 -0.510893 -0.000019
C -1.837946 -0.180314 -0.000011
C -1.538679 1.202361 -0.000059
C -0.230269 1.647755 -0.000089
C 0.792185 0.689431 -0.000020
C 0.513365 -0.698633 0.000054
C 1.779949 -1.375100 -0.000067
C 2.747686 -0.403504 0.000092
N 2.161295 0.836271 -0.000028
C -0.828492 -1.129575 0.000038
H -3.242812 -1.469925 -0.000196
H -2.374546 1.901871 -0.000073
H -0.007848 2.715958 -0.000106
H 1.951609 -2.447381 -0.000262
H 3.830188 -0.503392 0.000100
H 2.653674 1.717139 0.001236
H -1.070100 -2.195557 0.000020