28

C 4.006131 1.105457 0.470465
C 3.198828 0.088337 0.157104
C 1.811112 -0.027654 0.738631
C 0.696472 -0.007898 -0.310314
C -0.696471 -0.007792 0.310321
C -1.811110 -0.027807 -0.738621
C -3.198825 0.088314 -0.157117
C -3.617872 -0.997839 0.796925
C -4.006074 1.105442 -0.470594
C 3.617817 -0.997944 -0.796818
H 5.011009 1.185546 0.049123
H 3.685979 1.889410 1.160736
H 1.739300 -0.969971 1.311922
H 1.648630 0.791298 1.456819
H 0.817001 0.884561 -0.947995
H 0.790730 -0.880563 -0.978558
H -0.790757 -0.880265 0.978811
H -0.816978 0.884851 0.947748
H -1.648633 0.790980 -1.456999
H -1.739288 -0.970257 -1.311691
H -3.009047 -0.975360 1.714345
H -4.672006 -0.895149 1.085071
H -3.473566 -1.991394 0.342761
H -3.685879 1.889297 -1.160956
H -5.010946 1.185636 -0.049258
H 3.473426 -1.991445 -0.342562
H 3.009016 -0.975508 -1.714255
H 4.671965 -0.895360 -1.084949