43

C -2.718805 -1.241240 1.686313
C -1.971488 -1.960752 0.593442
C -2.521364 -3.104640 0.006991
C -1.862339 -3.788673 -1.013007
C -0.631469 -3.326425 -1.469540
C -0.071064 -2.181364 -0.904548
C -0.724672 -1.491236 0.123194
P 0.002629 -0.002682 0.940628
C 1.653986 0.116073 0.119439
C 1.913541 1.018620 -0.918752
C 3.183325 1.113158 -1.486932
C 4.208674 0.294382 -1.023109
C 3.957387 -0.610183 0.007126
C 2.693767 -0.712812 0.596914
C 2.455835 -1.709175 1.701967
C -0.923822 1.368102 0.117278
C -1.814490 1.147077 -0.939685
C -2.523091 2.202063 -1.513345
C -2.339154 3.496378 -1.035501
C -1.450068 3.725345 0.013086
C -0.737303 2.679605 0.607623
C 0.225860 2.966132 1.730497
H -2.082532 -1.100233 2.572945
H -3.033666 -0.238332 1.356286
H -3.615776 -1.800483 1.981643
H -3.487328 -3.467526 0.365412
H -2.312445 -4.682239 -1.448543
H -0.105267 -3.851064 -2.268423
H 0.890652 -1.817374 -1.272518
H 1.110419 1.656620 -1.293257
H 3.364918 1.823968 -2.294458
H 5.206161 0.357893 -1.461054
H 4.762381 -1.252779 0.370925
H 2.021780 -1.220103 2.586975
H 1.743763 -2.488406 1.386370
H 3.392247 -2.200757 1.995118
H -1.955164 0.134698 -1.324498
H -3.213136 2.008761 -2.336014
H -2.886824 4.330518 -1.477106
H -1.305155 4.741269 0.387570
H 0.002932 2.344320 2.610434
H 1.261015 2.736331 1.431251
H 0.182119 4.022532 2.024807