22

N -1.326623 1.631494 -0.324741
C -1.417467 0.174993 -0.345068
C -0.480990 -0.483293 0.677659
C 0.977179 -0.277546 0.372347
C 1.580713 0.980067 0.540935
C 2.922802 1.179067 0.224297
C 3.697654 0.127979 -0.270819
C 3.110839 -1.123849 -0.450155
C 1.766444 -1.319178 -0.131918
C -2.907367 -0.297891 -0.081203
O -3.042387 -1.505492 0.164506
O -3.764206 0.602067 -0.176167
H -0.925022 1.974985 -1.193836
H -2.313550 1.918793 -0.318223
H -1.156249 -0.240055 -1.338587
H -0.720205 -0.052000 1.663379
H -0.734467 -1.551184 0.702035
H 0.955192 1.800111 0.897871
H 3.371296 2.165931 0.363548
H 4.750513 0.285108 -0.514975
H 3.704110 -1.955227 -0.838252
H 1.308638 -2.301629 -0.272937