36

C -5.508287 -1.866334 -0.591823
C -4.567342 -0.770264 -0.132040
O -3.281034 -1.324573 -0.043578
C -2.283291 -0.437326 0.354975
O -2.591051 0.726413 0.579130
C -1.012528 -1.051820 0.405011
H -0.939287 -2.125200 0.233968
P 0.385850 -0.210819 0.975550
O 0.779367 -0.021207 2.423175
C 1.792074 -1.086094 0.145716
C 2.961882 -1.264660 0.888507
C 4.069429 -1.896279 0.320921
C 4.013413 -2.354178 -0.995680
C 2.845365 -2.183492 -1.740870
C 1.738645 -1.554853 -1.170749
C 0.426228 1.444760 0.160983
C 1.051526 2.484716 0.851239
C 1.162897 3.749028 0.270072
C 0.643515 3.979352 -1.003151
C 0.003718 2.944983 -1.689721
C -0.107699 1.683934 -1.107785
H -5.188882 -2.256104 -1.569147
H -5.498764 -2.701922 0.122633
H -6.538190 -1.490291 -0.681542
H -4.573825 0.081894 -0.832908
H -4.878982 -0.358884 0.843339
H 2.962942 -0.901131 1.919201
H 4.980594 -2.035373 0.907557
H 4.879574 -2.848167 -1.441926
H 2.796345 -2.546855 -2.769888
H 0.812001 -1.429725 -1.736704
H 1.431131 2.272858 1.853515
H 1.653443 4.559656 0.814286
H 0.728555 4.968689 -1.458961
H -0.421139 3.127289 -2.679439
H -0.628793 0.871642 -1.620689