21

C 1.745802 -0.924619 1.539302
Si 1.206634 0.008386 -0.000149
C -0.668569 0.128145 0.000061
C -1.548138 1.178170 0.000104
C -2.867261 0.620780 0.000252
C -2.691459 -0.729483 0.000235
O -1.382399 -1.035126 0.000475
C 1.868129 1.766863 -0.001045
C 1.745268 -0.926054 -1.538922
H 1.260151 -1.911206 1.574316
H 2.835309 -1.078108 1.552021
H 1.463063 -0.374774 2.448865
H -1.280369 2.232252 -0.000035
H -3.815184 1.150867 0.000255
H -3.383059 -1.566906 0.000287
H 2.968295 1.767165 -0.001594
H 1.529053 2.315095 -0.892704
H 1.529943 2.315738 0.890556
H 1.258822 -1.912274 -1.573248
H 1.463016 -0.376645 -2.448897
H 2.834652 -1.080411 -1.551451