10

O 1.955769 1.066193 0.000066
N 1.388701 -0.021323 -0.000030
O 1.989502 -1.079236 0.000035
C -0.034780 -0.019944 -0.000042
C -0.861634 1.112753 -0.000055
N -2.133337 0.692405 -0.000013
C -2.012369 -0.659820 0.000172
N -0.777501 -1.148595 -0.000157
H -0.563543 2.160088 -0.000070
H -2.890965 -1.311094 0.000209