47

C 2.824858 4.642094 -0.589727
C 2.404212 3.302957 -0.064957
S 1.282041 2.293680 -0.919240
C 2.801585 2.680662 1.088473
C 2.198531 1.393777 1.267126
C 1.343209 1.024237 0.259014
B 0.470464 -0.360869 0.111190
C -1.130348 -0.020486 0.152784
C -1.701092 0.705870 1.213055
C -3.062514 0.977653 1.279315
C -3.912751 0.534047 0.259130
O -5.240898 0.848543 0.395382
C -6.107814 0.435814 -0.613553
C -3.382140 -0.180743 -0.814618
C -2.005330 -0.445936 -0.848369
O 0.775702 -1.117950 -1.127877
C 1.635498 -2.174185 -0.799121
C 1.437563 -3.309496 -1.799488
C 3.090317 -1.687730 -0.854999
C 1.200311 -2.520741 0.668461
C -0.068586 -3.385478 0.687937
C 2.286695 -3.190316 1.505288
O 0.909075 -1.262981 1.211064
H 3.297802 4.563014 -1.581581
H 1.971380 5.331438 -0.689188
H 3.551853 5.100758 0.095793
H 3.510212 3.134181 1.785905
H 2.384955 0.726799 2.110706
H -1.043918 1.071364 2.008673
H -3.503271 1.538414 2.106204
H -5.839357 0.870737 -1.593354
H -6.123929 -0.663788 -0.721631
H -7.113019 0.779429 -0.336028
H -4.019892 -0.534116 -1.625813
H -1.585386 -1.008910 -1.687148
H 1.783682 -2.984081 -2.792321
H 2.008253 -4.206849 -1.509133
H 0.374111 -3.570500 -1.879724
H 3.260539 -0.920679 -0.086439
H 3.813048 -2.508342 -0.719919
H 3.256348 -1.222128 -1.837922
H 0.122679 -4.425254 0.376899
H -0.464446 -3.387014 1.714150
H -0.833153 -2.945723 0.031551
H 3.146694 -2.518634 1.624859
H 1.889087 -3.413798 2.507013
H 2.626492 -4.133740 1.047286