17

N -4.573925 -1.048369 -0.000014
C -3.758408 -0.215585 -0.000005
C -2.770281 0.791404 0.000005
H -3.110846 1.827171 0.000013
C -1.403451 0.510816 0.000004
C -0.426492 1.568814 0.000014
C 0.922538 1.318559 0.000012
C 1.397138 -0.008356 0.000001
N 2.796443 -0.266436 -0.000003
O 3.570596 0.683281 0.000003
O 3.182861 -1.428544 -0.000004
C 0.475537 -1.075780 -0.000008
C -0.874179 -0.829173 -0.000006
H -0.784192 2.601169 0.000023
H 1.651287 2.128533 0.000019
H 0.864586 -2.093602 -0.000016
H -1.580539 -1.661721 -0.000014