12

N -0.021866 1.593340 -0.518031
C -0.242008 0.146853 -0.505406
C 0.776313 -0.599302 0.394065
S 2.548820 -0.227342 0.075969
C -1.691119 -0.185171 -0.013584
O -2.189462 0.618899 0.812290
O -2.195408 -1.245940 -0.440833
H -0.523377 1.904902 0.319041
H 0.983985 1.694736 -0.329486
H -0.133382 -0.261926 -1.527543
H 0.505408 -0.332507 1.437101
H 0.559152 -1.679054 0.289496