23

C -2.416058 0.670503 -0.317784
C -2.406209 -0.761044 0.189590
N -1.152530 -1.369611 -0.192295
C 0.065406 -0.726788 -0.027860
N 1.116324 -1.448217 0.080123
C 2.412402 -0.817998 0.164927
C 2.430767 0.606225 -0.382045
C 1.257461 1.372096 0.205035
N 0.022543 0.664863 -0.073914
C -1.195789 1.391839 0.227510
H -2.377516 0.663948 -1.417245
H -3.331612 1.191141 -0.004370
H -2.565176 -0.762539 1.287193
H -3.228705 -1.336346 -0.258659
H -1.046145 -2.365647 -0.041457
H 2.751002 -0.810880 1.218241
H 3.144987 -1.437353 -0.377031
H 3.376651 1.114604 -0.145579
H 2.324404 0.584682 -1.477990
H 1.398708 1.508272 1.297023
H 1.178890 2.377780 -0.237528
H -1.109276 2.395223 -0.218580
H -1.308450 1.538869 1.322348