64

C 1.257134 3.558665 -2.061988
Si 0.249306 2.547078 -0.848799
C 0.256244 3.375135 0.836384
C -1.507246 2.377606 -1.483258
O 0.996703 1.045911 -0.843152
C 1.385126 -0.077134 -0.090971
C 1.219438 0.223686 1.427186
H 1.596263 1.260935 1.518546
C 2.032006 -0.625644 2.415002
C 1.307861 -0.371737 3.738249
C -0.167699 -0.314968 3.336985
N -0.139701 0.137116 1.958570
C -1.281054 0.169460 1.213227
C -2.547143 -0.010539 1.654857
C -3.679493 -0.086309 0.721957
C -4.969022 0.292217 1.130374
C -6.045706 0.248540 0.248628
C -5.861768 -0.177597 -1.066801
C -4.590955 -0.576996 -1.482467
C -3.516198 -0.545806 -0.598707
C 0.595415 -1.285401 -0.619530
C 0.361088 -1.339932 -1.999084
C -0.352856 -2.394145 -2.563620
C -0.848299 -3.417921 -1.756221
C -0.615327 -3.377311 -0.384174
C 0.103172 -2.321652 0.179758
C 2.890456 -0.279748 -0.326052
C 3.714188 0.847019 -0.413779
C 5.094792 0.710297 -0.540193
C 5.671548 -0.558486 -0.587228
C 4.856150 -1.685897 -0.511164
C 3.474281 -1.548324 -0.381731
H 2.288955 3.703378 -1.708936
H 1.303178 3.050339 -3.036499
H 0.806814 4.551336 -2.213596
H -0.270346 4.338844 0.751659
H -0.265961 2.771830 1.593520
H 1.277820 3.582098 1.189836
H -1.557471 1.623764 -2.284243
H -2.217485 2.081359 -0.696947
H -1.850185 3.336959 -1.900824
H 2.001243 -1.690851 2.142169
H 3.087293 -0.325898 2.432300
H 1.507612 -1.137034 4.498718
H 1.620654 0.600225 4.148119
H -0.661571 -1.306183 3.392624
H -0.753765 0.368760 3.973493
H -1.123644 0.320534 0.145435
H -2.762058 -0.095592 2.722459
H -5.118593 0.640059 2.155098
H -7.036281 0.555134 0.589767
H -6.704681 -0.210467 -1.758575
H -4.437186 -0.937124 -2.501580
H -2.538239 -0.911236 -0.926108
H 0.740502 -0.532553 -2.626287
H -0.526550 -2.413107 -3.640738
H -1.417634 -4.239080 -2.194016
H -1.006428 -4.163872 0.262540
H 0.236339 -2.301273 1.260357
H 3.262742 1.839960 -0.392712
H 5.723001 1.600118 -0.606582
H 6.752155 -0.667767 -0.690685
H 5.295653 -2.683445 -0.559983
H 2.845043 -2.438827 -0.333733