15

N -1.594165 1.040676 -0.000032
H -1.972937 1.977214 -0.000190
C -2.311191 -0.128851 -0.000021
N -1.569131 -1.194790 -0.000063
C -0.270095 -0.723618 -0.000016
C 0.943131 -1.426661 0.000018
C 2.121234 -0.695532 0.000053
C 2.110146 0.715070 0.000059
C 0.922576 1.433171 0.000029
C -0.262189 0.689399 -0.000010
H -3.401122 -0.120861 -0.000030
H 0.939532 -2.516732 0.000013
H 3.079148 -1.217195 0.000077
H 3.058192 1.254860 0.000085
H 0.918584 2.523651 0.000033