26

H -0.000016 -2.458545 0.377960
C -0.000031 -1.417121 0.729018
H -0.000078 -1.459759 1.834663
C 1.251293 -0.701238 0.276521
C 1.251294 0.701295 0.276378
C 2.395170 1.389591 -0.131233
C 3.537295 0.696811 -0.529827
C 3.537294 -0.696921 -0.529685
C 2.395169 -1.389618 -0.130949
C -0.000031 1.417273 0.728723
C -1.251317 0.701295 0.276271
C -1.251317 -0.701238 0.276415
C -2.395158 -1.389619 -0.131153
C -3.537249 -0.696921 -0.529986
C -3.537250 0.696811 -0.530128
C -2.395159 1.389591 -0.131436
H 2.389045 2.482016 -0.138542
H 4.425081 1.246664 -0.846049
H 4.425079 -1.246840 -0.845796
H 2.389042 -2.482045 -0.138036
H -0.000078 1.460148 1.834359
H -0.000016 2.458622 0.377443
H -2.389030 -2.482045 -0.138239
H -4.425007 -1.246840 -0.846172
H -4.425009 1.246664 -0.846425
H -2.389033 2.482016 -0.138745