14

N 2.314670 0.000000 -0.000442
C 0.942531 0.000000 -0.000113
C 0.221205 1.207531 -0.000031
C -1.169566 1.199854 0.000051
C -1.880496 0.000000 0.000149
C -1.169566 -1.199854 0.000115
C 0.221205 -1.207531 -0.000057
H 2.829262 0.865548 0.000389
H 2.829262 -0.865546 0.001713
H 0.764992 2.154808 -0.000027
H -1.706234 2.150766 0.000089
H -2.970610 0.000000 0.000256
H -1.706234 -2.150766 0.000188
H 0.764992 -2.154808 -0.000189