30

N 4.453212 -0.868195 0.601033
C 3.333197 -1.028116 -0.163930
O 3.191773 -1.991444 -0.894668
C 2.319124 0.052063 -0.027340
C 1.211013 -0.082608 -0.786990
N 0.181846 0.821113 -0.803356
C -1.065477 0.538869 -1.477437
C -2.165956 0.037109 -0.560016
C -3.504279 0.181336 -0.937674
C -4.526799 -0.304284 -0.125933
C -4.219997 -0.935527 1.079506
C -2.888279 -1.074907 1.465878
C -1.864822 -0.589940 0.651984
C 0.259143 1.906994 0.069251
C 1.313759 2.132595 0.862179
C 2.525932 1.234770 0.895011
H 5.175233 -1.571380 0.524332
H 4.606847 -0.061318 1.185178
H 1.119466 -0.958152 -1.434778
H -1.409969 1.445447 -2.000891
H -0.859651 -0.211703 -2.255595
H -3.747873 0.683086 -1.877774
H -5.567188 -0.184045 -0.431982
H -5.018776 -1.313555 1.719180
H -2.641660 -1.564207 2.409380
H -0.823257 -0.693767 0.964756
H -0.611149 2.565902 0.062370
H 1.294434 3.012626 1.505898
H 2.715132 0.894579 1.931884
H 3.429462 1.807478 0.604713