21

C -1.935030 -0.919029 -1.537372
Si -1.418175 0.032729 0.000032
C 0.452979 0.214346 -0.000031
C 1.200852 1.370114 -0.000060
C 2.610081 1.144397 -0.000140
C 2.920519 -0.187795 0.000004
S 1.503976 -1.158750 -0.000021
C -2.156028 1.760585 0.000012
C -1.935005 -0.918900 1.537523
H -1.450464 -1.906903 -1.562942
H -3.024306 -1.073682 -1.561487
H -1.642105 -0.376179 -2.448047
H 0.751121 2.364092 -0.000069
H 3.358597 1.935933 -0.000205
H 3.907781 -0.644813 0.000038
H -3.255094 1.708535 -0.000206
H -1.844164 2.324335 0.891890
H -1.843819 2.324451 -0.891672
H -1.451735 -1.907426 1.562423
H -1.640714 -0.376712 2.448151
H -3.024468 -1.072145 1.562391