16

C 2.080351 -1.074131 -0.000383
C 1.123463 -0.133435 -0.000176
C 1.454804 1.334173 -0.000095
C -0.293272 -0.527253 -0.000002
C -1.335063 0.315380 0.000221
C -2.774878 -0.124229 0.000380
H 1.826265 -2.136626 -0.000425
H 3.139667 -0.809623 -0.000504
H 2.540259 1.492915 -0.000239
H 1.029354 1.830759 -0.885663
H 1.029613 1.830600 0.885687
H -0.485563 -1.606885 -0.000061
H -1.141069 1.392603 0.000285
H -3.006089 -0.734670 -0.885638
H -3.005733 -0.735208 0.886120
H -3.459134 0.733102 0.000769