20

C -1.951371 0.191264 -0.775736
C -0.644192 0.014661 -0.013002
C -0.930226 -0.375021 1.445554
N 0.209248 -0.956597 -0.701839
C 1.576225 -0.792735 -0.217701
C 1.676866 0.710073 0.139433
C 0.255290 1.258783 -0.075781
H -2.559120 0.996618 -0.337033
H -1.739289 0.430276 -1.826776
H -2.547777 -0.734207 -0.747687
H -1.464543 -1.337441 1.486899
H -0.000228 -0.476994 2.025829
H -1.556460 0.380460 1.943458
H -0.134505 -1.909150 -0.603537
H 1.803855 -1.407416 0.674234
H 2.295704 -1.084506 -0.997677
H 2.000975 0.838034 1.181535
H 2.409219 1.233162 -0.488778
H 0.165152 1.704823 -1.076957
H -0.033272 2.020374 0.662763