16

C -2.963817 0.339834 0.000310
C -1.955137 -0.535780 -0.000245
C -0.512017 -0.226127 -0.000151
C 0.408835 -1.282492 0.000002
C 1.781578 -1.041492 0.000152
C 2.259015 0.267064 0.000131
C 1.353136 1.330129 -0.000056
C -0.015990 1.086967 -0.000203
H -3.999301 -0.003039 0.000181
H -2.801408 1.419711 0.000934
H -2.193284 -1.604358 -0.000779
H 0.037477 -2.309837 0.000018
H 2.479601 -1.880042 0.000281
H 3.332632 0.460812 0.000239
H 1.719188 2.358119 -0.000109
H -0.708521 1.930013 -0.000404