19

C 2.345062 0.000000 -0.365824
C 1.108020 0.000000 0.135798
C 0.338025 1.265440 0.422118
C -1.012434 1.260900 -0.306632
C -1.811361 0.000000 0.022590
C -1.012434 -1.260900 -0.306631
C 0.338025 -1.265440 0.422118
H 2.871674 0.934148 -0.576002
H 2.871675 -0.934149 -0.576002
H 0.148643 1.324816 1.509528
H 0.932703 2.148248 0.146482
H -1.587250 2.161904 -0.044268
H -0.830219 1.300397 -1.393820
H -2.061678 0.000000 1.098280
H -2.766841 0.000000 -0.523345
H -1.587251 -2.161904 -0.044267
H -0.830219 -1.300397 -1.393820
H 0.932702 -2.148248 0.146482
H 0.148642 -1.324817 1.509528