21

C 3.340406 -0.130972 0.167305
O 2.038956 -0.361855 -0.280776
C 1.135587 0.639384 0.100412
C -0.239359 0.243753 -0.382236
H -0.186781 0.129178 -1.487283
N -0.688886 -0.976110 0.265273
C -2.100913 -1.079721 -0.057381
C -2.605252 0.352957 0.186249
C -1.354425 1.239984 -0.030399
H 3.971778 -0.960324 -0.175635
H 3.748485 0.815049 -0.236259
H 3.388820 -0.080584 1.271097
H 1.110464 0.741888 1.203702
H 1.432016 1.617873 -0.330016
H -0.135025 -1.778468 -0.023841
H -2.278744 -1.361080 -1.116553
H -2.604519 -1.824042 0.575666
H -3.431971 0.614605 -0.487022
H -2.972128 0.455669 1.215818
H -1.096005 1.774755 0.895716
H -1.492103 1.990782 -0.819792