20

C -3.255549 -0.769896 0.000088
O -1.892910 -1.098702 -0.000128
C -0.996242 -0.088464 -0.000006
C 0.365005 -0.466333 -0.000078
C 1.031579 -1.735580 -0.000323
C 2.373926 -1.466104 -0.000002
N 2.571078 -0.103298 -0.000104
C 1.357481 0.537214 0.000005
C 1.046222 1.909105 0.000148
C -0.294285 2.241927 0.000215
C -1.315590 1.263829 0.000144
H -3.530073 -0.189668 0.896961
H -3.530333 -0.189550 -0.896629
H -3.809401 -1.715258 0.000100
H 0.564154 -2.714844 -0.000513
H 3.221309 -2.146628 0.000059
H 3.469161 0.357376 -0.000085
H 1.823773 2.673183 0.000205
H -0.583930 3.294001 0.000316
H -2.354202 1.589900 0.000180