16

C -2.747375 0.320780 0.000095
O -1.753924 -0.668282 0.000009
C -0.459131 -0.278167 0.000004
C 0.496747 -1.304310 0.000014
C 1.849600 -0.995527 -0.000014
C 2.274665 0.336779 -0.000046
C 1.323857 1.350835 -0.000054
C -0.042710 1.056900 -0.000039
H -2.684243 0.959565 -0.896859
H -3.710992 -0.200691 0.000149
H -2.684127 0.959528 0.897066
H 0.141352 -2.335198 0.000038
H 2.582947 -1.803709 -0.000008
H 3.338290 0.576411 -0.000066
H 1.640131 2.395470 -0.000086
H -0.765883 1.871140 -0.000064