15

C -1.437522 -0.000015 0.545693
C -0.967400 -1.218073 -0.202104
C 0.341523 -1.527434 -0.281524
C 1.422811 -0.680141 0.189580
C 1.422797 0.680171 0.189580
C 0.341490 1.527442 -0.281524
C -0.967426 1.218053 -0.202104
H -2.527954 -0.000026 0.660967
H -0.981789 -0.000010 1.552063
H -1.705653 -1.870058 -0.676886
H 0.630905 -2.473345 -0.748825
H 2.360862 -1.180916 0.446404
H 2.360838 1.180967 0.446404
H 0.630852 2.473359 -0.748825
H -1.705693 1.870022 -0.676886