35

C 3.764598 -1.538379 1.090423
Si 3.737605 -0.000001 -0.000700
C 3.764661 1.538494 1.090258
C 5.249400 -0.000090 -1.125980
C 2.173140 -0.000024 -1.063974
C 0.857492 -0.000008 -0.275580
C -0.394427 -0.000011 -1.157822
Sn -2.238001 0.000001 -0.004727
C -2.272634 1.766417 1.253081
C -3.964985 -0.000005 -1.313747
C -2.272645 -1.766401 1.253101
H 2.917751 -1.547190 1.793012
H 3.710166 -2.454450 0.482631
H 4.691044 -1.581529 1.683010
H 4.691103 1.581663 1.682850
H 3.710278 2.454501 0.482366
H 2.917807 1.547421 1.792838
H 5.259124 -0.889690 -1.773754
H 5.259150 0.889434 -1.773858
H 6.179856 -0.000069 -0.538256
H 2.203406 0.880668 -1.730194
H 2.203404 -0.880739 -1.730162
H 0.836863 -0.879446 0.392898
H 0.836871 0.879442 0.392882
H -0.388593 0.881704 -1.819730
H -0.388597 -0.881735 -1.819718
H -2.223740 2.679214 0.643123
H -3.194478 1.800691 1.850140
H -1.417406 1.767428 1.943349
H -3.964010 -0.890390 -1.957532
H -4.894328 -0.000029 -0.727501
H -3.964038 0.890402 -1.957503
H -1.417402 -1.767426 1.943349
H -3.194477 -1.800646 1.850181
H -2.223789 -2.679205 0.643152