43

C 5.195667 -0.493616 -0.521460
C 3.795650 -0.500954 0.012450
S 2.445111 0.007042 -0.951077
C 3.360496 -0.887795 1.251934
C 1.941440 -0.770659 1.410394
C 1.286285 -0.295308 0.301842
B -0.315633 -0.003690 0.091827
C -0.582660 1.611170 0.030877
C -0.274999 2.436374 1.124056
C -0.520134 3.809000 1.103314
C -1.078083 4.402586 -0.031823
C -1.387392 3.605725 -1.133909
C -1.142966 2.230063 -1.094946
O -0.863755 -0.642333 -1.129318
C -1.553380 -1.799566 -0.742954
C -2.638675 -2.101402 -1.771708
C -0.573971 -2.979114 -0.665200
C -2.093625 -1.410216 0.677522
C -3.341106 -0.521432 0.574932
C -2.382676 -2.598664 1.589760
O -1.036714 -0.662766 1.213620
H 5.298715 -1.138391 -1.408833
H 5.517823 0.518399 -0.814209
H 5.891717 -0.861585 0.245945
H 4.041909 -1.250909 2.025223
H 1.390639 -1.037924 2.313874
H 0.171282 1.979592 2.013277
H -0.272887 4.423844 1.973371
H -1.268640 5.478561 -0.055405
H -1.824475 4.060225 -2.027592
H -1.395821 1.598871 -1.951941
H -2.166579 -2.377397 -2.726934
H -3.281222 -2.936479 -1.447704
H -3.262308 -1.214779 -1.946482
H 0.165707 -2.804047 0.129161
H -1.085902 -3.937737 -0.482686
H -0.033751 -3.038168 -1.621884
H -4.237401 -1.085082 0.269270
H -3.521364 -0.069516 1.561484
H -3.162072 0.292355 -0.142650
H -1.460343 -3.157931 1.793812
H -2.777564 -2.233157 2.550059
H -3.126550 -3.279336 1.144060