41

H -1.858927 1.745803 0.000000
Si -0.977537 0.537062 0.000000
C 0.824082 1.107812 0.000000
C 1.829823 -0.046516 0.000000
C 3.286918 0.410225 0.000000
C 4.275478 -0.749626 0.000000
C -1.335100 -0.483629 1.549620
C -0.912347 0.191613 2.856648
C -1.266362 -0.614253 4.104819
C -0.827088 0.063561 5.396956
C -1.335100 -0.483629 -1.549620
C -0.912347 0.191613 -2.856648
C -1.266362 -0.614253 -4.104819
C -0.827088 0.063561 -5.396956
H 0.992133 1.753734 -0.879315
H 0.992133 1.753734 0.879315
H 1.658041 -0.692444 0.880223
H 1.658041 -0.692444 -0.880223
H 3.459819 1.051495 -0.880569
H 3.459819 1.051495 0.880569
H 5.316341 -0.396937 0.000000
H 4.136500 -1.385638 0.887428
H 4.136500 -1.385638 -0.887428
H -2.415993 -0.706812 1.574424
H -0.829661 -1.460830 1.452148
H 0.177800 0.370750 2.846340
H -1.377954 1.190942 2.930903
H -2.355643 -0.785707 4.122527
H -0.803388 -1.612551 4.027686
H -1.300428 1.051366 5.504482
H -1.093423 -0.533780 6.280227
H 0.262735 0.216179 5.410803
H -0.829661 -1.460830 -1.452148
H -2.415993 -0.706812 -1.574424
H -1.377954 1.190942 -2.930903
H 0.177800 0.370750 -2.846340
H -0.803388 -1.612551 -4.027686
H -2.355643 -0.785707 -4.122527
H 0.262735 0.216179 -5.410803
H -1.093423 -0.533780 -6.280227
H -1.300428 1.051366 -5.504482