32

O -1.849777 2.173926 -1.389917
C -2.133693 1.233014 -0.669893
C -1.584213 0.921325 0.600338
C -0.464398 1.770514 1.130905
C 0.851084 1.155884 0.732487
C 1.452615 1.488370 -0.492818
C 2.632477 0.877108 -0.897137
C 3.206581 -0.083092 -0.065256
N 4.461311 -0.719244 -0.475141
O 4.958118 -0.374439 -1.525539
O 4.941086 -1.555845 0.258674
C 2.621311 -0.457105 1.143503
C 1.442334 0.164391 1.533962
C -2.029795 -0.171479 1.386331
O -3.021062 -0.957695 0.810459
C -3.105151 -0.944042 -0.595890
C -1.941023 -1.733003 -1.199664
C -4.445810 -1.560024 -0.946622
O -3.123760 0.363832 -1.117871
O -1.652378 -0.481353 2.503605
H -0.546302 2.781920 0.708300
H -0.530118 1.820851 2.227708
H 0.954962 2.220104 -1.133086
H 3.119462 1.122773 -1.839553
H 3.098364 -1.225538 1.749619
H 0.930981 -0.128316 2.453551
H -1.950703 -2.761088 -0.812617
H -2.034202 -1.748526 -2.294195
H -0.985403 -1.261779 -0.931895
H -5.236390 -0.953037 -0.487183
H -4.580363 -1.566830 -2.036273
H -4.501187 -2.584409 -0.555160