12

N 1.591172 1.145301 0.000019
C 2.245010 -0.021980 0.000101
N 1.540311 -1.169854 -0.000087
C 0.268780 -0.712990 -0.000022
N -0.878829 -1.414357 -0.000057
C -1.972812 -0.669559 -0.000026
N -2.076111 0.671429 0.000013
C -0.940723 1.371647 0.000043
C 0.294381 0.726665 0.000026
H 3.340953 -0.044960 0.000058
H -2.928388 -1.212176 -0.000072
H -1.016172 2.466815 0.000067