29

C 0.000001 2.857023 0.322768
C 0.000000 1.539235 1.102521
Si 0.000000 0.000000 0.000000
C -1.539235 0.000000 -1.102521
C -2.857023 0.000001 -0.322768
C 1.539235 0.000000 -1.102521
C 2.857023 -0.000001 -0.322768
C 0.000000 -1.539235 1.102521
C -0.000001 -2.857023 0.322768
H 0.000001 3.733366 0.987340
H 0.885672 2.937336 -0.326427
H -0.885669 2.937337 -0.326428
H 0.877785 1.489158 1.769009
H -0.877786 1.489159 1.769008
H -1.489158 0.877785 -1.769009
H -1.489159 -0.877786 -1.769008
H -3.733366 0.000001 -0.987340
H -2.937337 -0.885669 0.326428
H -2.937336 0.885672 0.326427
H 1.489158 -0.877785 -1.769009
H 1.489159 0.877786 -1.769008
H 2.937337 0.885669 0.326428
H 2.937336 -0.885672 0.326427
H 3.733366 -0.000001 -0.987340
H 0.877786 -1.489159 1.769008
H -0.877785 -1.489158 1.769009
H 0.885669 -2.937337 -0.326428
H -0.000001 -3.733366 0.987340
H -0.885672 -2.937336 -0.326427