38

F 2.535649 1.953964 -1.104436
B 1.762755 2.061693 0.056277
F 2.467186 1.492982 1.146820
F 1.519562 3.416935 0.322104
C 0.281139 1.341053 -0.083062
N -0.008257 -0.041546 -0.041820
C 0.915020 -1.077447 0.007243
O 2.093918 -0.668851 -0.425359
C 3.315091 -1.358323 -0.083019
C 3.373884 -2.696643 -0.816194
C 4.397390 -0.406885 -0.575717
C 3.401734 -1.524811 1.431889
O 0.638692 -2.200717 0.362510
C -0.917283 1.998967 -0.114482
C -1.994041 1.041608 -0.091039
C -1.393026 -0.241016 -0.022448
C -2.157126 -1.402142 0.032556
C -3.549062 -1.281602 0.013339
C -4.158233 -0.016561 -0.057560
O -5.517477 0.160183 -0.079820
C -6.325110 -0.968302 0.044969
C -3.388531 1.144497 -0.109098
H 3.259350 -2.533652 -1.898077
H 4.350712 -3.171403 -0.637670
H 2.575023 -3.363497 -0.469297
H 4.285050 0.556305 -0.062720
H 5.391369 -0.839225 -0.385198
H 4.273930 -0.225278 -1.652171
H 2.638233 -2.223950 1.796976
H 4.396351 -1.911353 1.699862
H 3.253953 -0.539981 1.895625
H -1.004454 3.082087 -0.115792
H -1.679189 -2.376552 0.102970
H -4.150790 -2.188317 0.058272
H -6.181854 -1.676969 -0.790511
H -6.136050 -1.508513 0.989979
H -7.366157 -0.620505 0.037061
H -3.895178 2.108938 -0.161257