16

N -0.451712 1.648329 0.187927
C -0.519661 0.253725 -0.282578
C 0.554124 -0.618672 0.353364
C 2.001839 -0.272318 0.032771
N 2.219596 1.039186 -0.244385
O 2.898939 -1.098543 0.048062
C -1.962883 -0.355919 -0.090299
O -2.855912 0.500755 0.067825
O -2.038157 -1.591149 -0.149945
H -1.360519 2.027504 -0.097621
H -0.565246 1.599987 1.204561
H -0.338002 0.268243 -1.373961
H 0.446290 -0.592344 1.454347
H 0.370871 -1.658589 0.058838
H 1.424636 1.689346 -0.209657
H 3.167318 1.323847 -0.448382