23

C -0.251582 -0.252256 2.908111
C -0.251582 -1.077339 1.619863
Ge -0.521933 0.013117 0.000000
H -1.967388 0.590016 0.000000
C 0.768910 1.503529 0.000000
C 2.219743 1.018592 0.000000
C -0.251582 -1.077339 -1.619863
C -0.251582 -0.252256 -2.908111
H 0.565426 0.485631 2.911103
H -1.193706 0.304304 3.029076
H -0.125983 -0.883128 3.800742
H 0.702032 -1.619085 1.510326
H -1.037729 -1.847813 1.654630
H 0.571554 2.137133 -0.879247
H 0.571554 2.137133 0.879247
H 2.934746 1.854772 0.000000
H 2.438672 0.401905 0.885910
H 2.438672 0.401905 -0.885910
H 0.702032 -1.619085 -1.510326
H -1.037729 -1.847813 -1.654630
H -1.193706 0.304304 -3.029076
H 0.565426 0.485631 -2.911103
H -0.125983 -0.883128 -3.800742