22

C 0.634882 -0.955210 3.412804
C 0.634882 -0.101680 2.180933
C -0.308786 -0.117756 1.238426
C -0.314576 0.743094 0.000000
C -1.533447 1.677372 0.000000
H 0.602819 1.354691 0.000000
C -0.308786 -0.117756 -1.238426
C 0.634882 -0.101680 -2.180933
C 0.634882 -0.955210 -3.412804
H 0.647563 -0.337912 4.324353
H -0.252796 -1.601766 3.447474
H 1.529150 -1.596450 3.449977
H 1.482868 0.582846 2.054902
H -1.162517 -0.800569 1.351124
H -1.534027 2.316475 -0.894412
H -2.466911 1.093015 0.000000
H -1.534027 2.316475 0.894412
H -1.162517 -0.800569 -1.351124
H 1.482868 0.582846 -2.054902
H -0.252796 -1.601766 -3.447474
H 0.647563 -0.337912 -4.324353
H 1.529150 -1.596450 -3.449977