38

O 0.164210 3.427526 0.368015
C -0.014376 2.239442 0.239374
C 0.999460 1.134919 0.515281
H 1.437268 1.288971 1.514293
C 2.120418 1.212956 -0.539622
C 3.126742 0.106309 -0.366838
C 3.061243 -1.057755 -1.140473
C 3.958682 -2.106536 -0.932269
C 4.934397 -2.004215 0.056609
C 5.009231 -0.848034 0.834907
C 4.112068 0.195556 0.624607
N 0.185602 -0.065405 0.478075
C -0.994470 0.183633 -0.332371
H -0.887061 -0.103341 -1.403246
C -2.184556 -0.546683 0.204711
C -2.479974 -1.054220 1.431079
C -3.808207 -1.585599 1.322861
C -4.214209 -1.356394 0.040639
C -5.463922 -1.656467 -0.706996
O -3.227359 -0.727291 -0.641916
N -1.129121 1.628765 -0.246553
C -2.300605 2.337579 -0.689084
H 1.669370 1.163207 -1.544163
H 2.598749 2.198930 -0.441760
H 2.306302 -1.137225 -1.927569
H 3.898310 -3.004030 -1.550123
H 5.639672 -2.820580 0.218467
H 5.773949 -0.757842 1.608078
H 4.175158 1.100188 1.234812
H 0.691390 -0.904540 0.208127
H -1.815339 -1.044626 2.289219
H -4.389592 -2.080798 2.095501
H -5.923840 -0.733905 -1.090578
H -5.261196 -2.312532 -1.566158
H -6.181162 -2.156121 -0.045765
H -3.180457 2.061749 -0.087834
H -2.096002 3.408628 -0.568014
H -2.517234 2.121527 -1.747223