37

P 0.024320 -0.027188 0.136258
O -1.323063 -0.495749 -0.701804
C -2.048260 -1.588446 -0.285646
C -3.363575 -1.398197 0.136650
C -4.120048 -2.498166 0.532979
C -3.565520 -3.778707 0.516931
C -2.248537 -3.955987 0.096211
C -1.482936 -2.863860 -0.310399
O 1.115630 -0.938065 -0.710406
C 2.433717 -0.963067 -0.311601
C 2.937070 -2.117989 0.285739
C 4.276184 -2.163205 0.665721
C 5.104851 -1.059979 0.458199
C 4.588768 0.091119 -0.135719
C 3.251359 0.147149 -0.525282
O 0.279867 1.387000 -0.683805
C -0.355926 2.537553 -0.272008
C 0.373983 3.509954 0.409866
C -0.258359 4.688162 0.800676
C -1.610060 4.889019 0.519263
C -2.330336 3.906575 -0.159557
C -1.707961 2.725374 -0.560130
H -3.772001 -0.387054 0.147220
H -5.150376 -2.352686 0.861127
H -4.161419 -4.637248 0.828708
H -1.811224 -4.955405 0.074934
H -0.459588 -2.981637 -0.668837
H 2.268699 -2.965596 0.442214
H 4.674257 -3.066772 1.129929
H 6.152840 -1.098966 0.757686
H 5.233815 0.954827 -0.304668
H 2.826008 1.028758 -1.005981
H 1.428535 3.327463 0.620913
H 0.309056 5.453871 1.331801
H -2.101522 5.812569 0.827516
H -3.386703 4.061081 -0.384886
H -2.241133 1.945315 -1.104785