21

C 2.128577 0.610312 0.410024
C 2.125758 -0.822994 -0.128032
N 0.834187 -1.487085 -0.061041
C -0.194037 -0.738981 -0.034807
C -1.627660 -1.228117 -0.057783
C -2.443508 0.016910 0.308805
C -1.564713 1.173367 -0.187893
N -0.230666 0.641612 -0.024844
C 0.977755 1.406912 -0.199842
H 1.996913 0.587983 1.503140
H 3.088109 1.104338 0.201243
H 2.470076 -0.825412 -1.178421
H 2.859815 -1.426722 0.427221
H -1.850986 -1.569501 -1.081036
H -1.764013 -2.083215 0.614489
H -3.448149 0.030842 -0.131562
H -2.548393 0.087774 1.401053
H -1.781389 1.420053 -1.246494
H -1.696177 2.095260 0.400446
H 0.863943 2.382523 0.299677
H 1.172581 1.609929 -1.271384