66

C 0.883113 -4.496677 0.783767
C -0.133856 -3.668402 1.034140
C -0.014951 -2.300589 1.626850
Si -0.034016 -0.952454 0.279767
C -0.041595 0.735528 1.129008
C -0.044715 1.920942 0.160273
C -0.037786 3.278966 0.856980
C -0.042959 4.461449 -0.105162
C -0.034604 5.815489 0.597731
C -0.039924 6.992006 -0.370946
C 1.509996 -1.142070 -0.788368
C 2.819083 -0.845092 -0.051990
C 4.069540 -1.105555 -0.887247
C 5.366897 -0.806216 -0.144103
C 6.621283 -1.084392 -0.966447
C 7.909001 -0.782337 -0.208734
C -1.579203 -1.154970 -0.788082
C -2.892806 -0.945942 -0.030357
C -4.140364 -1.183025 -0.876834
C -5.441003 -0.951454 -0.115773
C -6.692161 -1.214487 -0.947842
C -7.982991 -0.973556 -0.174070
H 1.910137 -4.230544 1.053032
H 0.724666 -5.466560 0.309241
H -1.143951 -3.982398 0.743260
H -0.839195 -2.100574 2.330526
H 0.926536 -2.199560 2.191186
H -0.920749 0.792483 1.795064
H 0.838727 0.795946 1.793460
H 0.831335 1.857913 -0.510250
H -0.929121 1.861510 -0.499413
H -0.914018 3.345283 1.525619
H 0.848351 3.342532 1.512721
H 0.833018 4.392690 -0.774343
H -0.929675 4.396426 -0.760469
H -0.909501 5.878774 1.266390
H 0.851186 5.875081 1.252251
H 0.842075 6.964342 -1.028573
H -0.932560 6.968295 -1.014233
H -0.033442 7.954709 0.159013
H 1.523097 -2.176100 -1.175767
H 1.419482 -0.486997 -1.672531
H 2.825949 0.206743 0.285769
H 2.877591 -1.453078 0.868849
H 4.069350 -2.159411 -1.217025
H 4.024116 -0.498954 -1.808685
H 5.368207 0.250455 0.177723
H 5.400544 -1.404640 0.783653
H 6.615609 -2.140160 -1.285770
H 6.585362 -0.487225 -1.893053
H 7.950961 0.276245 0.089424
H 7.975443 -1.386982 0.708403
H 8.798866 -0.996114 -0.817105
H -1.519109 -0.450549 -1.636299
H -1.556864 -2.163916 -1.237003
H -2.929931 -1.614393 0.849045
H -2.925873 0.080631 0.376206
H -4.109263 -0.523794 -1.762042
H -4.121043 -2.215718 -1.267174
H -5.458347 -1.596713 0.780578
H -5.464010 0.087085 0.259475
H -6.670470 -0.573598 -1.845292
H -6.667142 -2.253558 -1.316911
H -8.035918 -1.623160 0.712764
H -8.043815 0.068245 0.175324
H -8.870368 -1.174016 -0.790534