49

C -2.125081 -1.135703 3.397468
C -1.900106 -0.392488 2.115531
C -2.848047 0.304962 1.471896
O -0.625018 -0.517637 1.688675
Si 0.023477 -0.017388 0.171050
Si 0.207684 2.312070 -0.127025
C 1.527224 3.026143 1.022610
C 0.781892 2.501638 -1.923253
C -1.397691 3.279309 0.099580
Si 2.156542 -0.985704 0.362811
C 1.990482 -2.863267 0.225766
C 3.349828 -0.342162 -0.954548
C 2.793111 -0.568861 2.089832
Si -1.181844 -1.013792 -1.595799
C -2.601300 0.041241 -2.265739
C 0.047741 -1.293541 -3.010148
C -1.858923 -2.667192 -0.988053
H -1.905320 -2.203042 3.246398
H -1.429008 -0.765577 4.164378
H -3.154768 -1.022757 3.754931
H -3.857152 0.361075 1.876936
H -2.633257 0.842651 0.547468
H 2.504607 2.551801 0.844835
H 1.640578 4.109149 0.858644
H 1.259597 2.866277 2.077859
H 0.009400 2.148960 -2.624435
H 0.986419 3.559299 -2.152296
H 1.701762 1.928992 -2.116872
H -1.780658 3.181665 1.125557
H -1.220398 4.346766 -0.106364
H -2.179059 2.925110 -0.589849
H 1.639095 -3.174433 -0.769249
H 2.957625 -3.355335 0.413499
H 1.269620 -3.230906 0.971992
H 3.527533 0.737464 -0.833356
H 4.321907 -0.852919 -0.871946
H 2.962213 -0.512971 -1.970221
H 2.043892 -0.877935 2.833734
H 3.737666 -1.091967 2.304900
H 2.961299 0.511461 2.208567
H -2.258486 1.043668 -2.564979
H -3.037608 -0.441298 -3.154620
H -3.399591 0.158105 -1.518748
H 0.873684 -1.952061 -2.701420
H -0.456656 -1.764759 -3.868354
H 0.482463 -0.342764 -3.355823
H -2.588747 -2.502448 -0.180925
H -2.362651 -3.208985 -1.803845
H -1.052683 -3.304268 -0.595956