45

C -1.885079 -0.383901 -1.604049
O -0.568913 -0.220030 -1.515147
Si 0.327835 0.048959 -0.100567
C 2.085750 -0.019237 -0.721246
C 2.381614 -0.500727 -2.004217
C 3.702760 -0.577538 -2.446574
C 4.743266 -0.173793 -1.611287
C 4.463683 0.309445 -0.332363
C 3.143708 0.386132 0.106776
C -0.137097 1.727352 0.580371
C 0.049058 2.057671 1.931451
C -0.253657 3.334775 2.403961
C -0.754783 4.298917 1.530127
C -0.951286 3.985293 0.184751
C -0.642221 2.710551 -0.285188
C 0.010980 -1.293966 1.163519
C -1.053744 -1.212416 2.075795
C -1.288732 -2.234220 2.994190
C -0.457596 -3.354432 3.016546
C 0.605837 -3.451689 2.120002
C 0.837588 -2.427992 1.202214
C -2.900327 0.080944 -0.856848
C -4.171416 -0.531383 -1.393967
C -3.671267 -1.069052 -2.748508
O -2.249212 -1.170386 -2.641165
H 1.565124 -0.811755 -2.659735
H 3.919706 -0.952490 -3.448293
H 5.776489 -0.233114 -1.958011
H 5.276711 0.629216 0.321475
H 2.937492 0.773213 1.109513
H 0.428257 1.305080 2.629306
H -0.102624 3.575939 3.457482
H -0.996489 5.297286 1.898900
H -1.348068 4.736789 -0.499802
H -0.806845 2.468921 -1.338831
H -1.705554 -0.334964 2.072389
H -2.120136 -2.155881 3.696504
H -0.637942 -4.153320 3.738056
H 1.258298 -4.326178 2.137481
H 1.677406 -2.510000 0.506793
H -2.805775 0.727281 0.011065
H -4.547769 -1.337270 -0.740589
H -4.990224 0.189267 -1.530584
H -4.065722 -2.056123 -3.017618
H -3.899254 -0.358415 -3.559798