71

C -3.106890 -0.560349 -2.272512
Si -2.956219 -1.889547 -0.946492
C -2.936700 -3.576290 -1.780135
C -1.370734 -1.725636 0.071376
Si 0.110993 -0.981411 -0.823856
H 0.200516 -1.629321 -2.173753
C -0.089479 0.878715 -1.060757
Si -0.707748 1.910041 0.393022
C -2.570523 1.761957 0.628554
C 0.177370 1.416056 1.983723
C -0.296985 3.723203 0.043998
C -1.265771 4.734705 0.109621
C -0.939137 6.068837 -0.138878
C 0.371083 6.417745 -0.459312
C 1.352351 5.428179 -0.529444
C 1.016699 4.098958 -0.280713
C 1.711010 -1.339359 0.107192
Si 3.309770 -1.291240 -0.889296
C 3.372074 -2.752678 -2.072473
C 3.452024 0.319605 -1.859351
C 4.773091 -1.396611 0.303245
C 5.734554 -2.412119 0.204893
C 6.810123 -2.480597 1.091734
C 6.943584 -1.527066 2.098864
C 5.999072 -0.506192 2.215180
C 4.927958 -0.446360 1.325826
C -4.441686 -1.766726 0.215415
C -5.422048 -0.774129 0.073395
C -6.497176 -0.686761 0.959126
C -6.611659 -1.597917 2.007219
C -5.647712 -2.594374 2.167284
C -4.576053 -2.672599 1.280147
H -4.040801 -0.696821 -2.839210
H -3.107930 0.454089 -1.848134
H -2.270630 -0.633281 -2.984990
H -2.038495 -3.681817 -2.408174
H -2.928778 -4.386495 -1.035732
H -3.822001 -3.710445 -2.418977
H -1.564611 -1.138646 0.984598
H -1.092250 -2.738563 0.409794
H 0.900931 1.273288 -1.343614
H -0.750100 1.080771 -1.919907
H -2.894034 0.721736 0.784834
H -2.886487 2.338194 1.512064
H -3.114843 2.159440 -0.242276
H 1.265171 1.556943 1.884801
H -0.164853 2.047599 2.817011
H -0.008320 0.364509 2.251864
H -2.300291 4.483129 0.357549
H -1.711526 6.837965 -0.081733
H 0.628526 7.460021 -0.655638
H 2.380718 5.694020 -0.780862
H 1.801513 3.338155 -0.346586
H 1.791824 -0.631837 0.949199
H 1.641643 -2.345349 0.556478
H 2.522628 -2.716032 -2.770327
H 4.298291 -2.746607 -2.666712
H 3.320751 -3.707100 -1.526566
H 3.384878 1.193321 -1.192223
H 4.424970 0.366267 -2.370870
H 2.662115 0.406854 -2.621413
H 5.645227 -3.169910 -0.577755
H 7.545817 -3.281110 0.995682
H 7.783091 -1.577818 2.794312
H 6.099234 0.243525 3.002074
H 4.195594 0.360249 1.435986
H -5.345930 -0.048157 -0.740595
H -7.247660 0.095177 0.830198
H -7.451287 -1.532342 2.701274
H -5.732571 -3.310127 2.986869
H -3.825809 -3.456480 1.424871