17

C 0.000000 -0.764272 -1.479326
C 0.000000 0.764272 -1.479326
C 0.552424 1.383199 -0.198998
O -0.318751 1.116990 0.883130
C 0.000000 0.000000 1.648317
O 0.318751 -1.116990 0.883130
C -0.552424 -1.383199 -0.198998
H -0.574325 -1.137141 -2.341978
H 1.030228 -1.138411 -1.595652
H 0.574325 1.137141 -2.341978
H -1.030228 1.138411 -1.595652
H 1.570191 1.010938 0.015944
H 0.605647 2.476490 -0.303452
H 0.885272 0.177802 2.285099
H -0.885272 -0.177802 2.285099
H -1.570191 -1.010938 0.015944
H -0.605647 -2.476490 -0.303452