17

C -0.623476 0.715134 1.259376
C 0.144714 0.300225 0.000000
C -0.623476 0.715134 -1.259376
C 1.527148 0.952072 0.000000
N 0.369329 -1.159937 0.000000
C -0.623476 -1.935788 0.000000
H -1.633459 0.279740 1.274307
H -0.088163 0.379976 2.159694
H -0.723414 1.809494 1.301260
H -0.723414 1.809494 -1.301260
H -0.088163 0.379976 -2.159694
H -1.633459 0.279740 -1.274307
H 2.092387 0.636573 0.888358
H 2.092387 0.636573 -0.888358
H 1.447206 2.049169 0.000000
H -1.678438 -1.600184 0.000000
H -0.457378 -3.021665 0.000000