18

C -4.132747 0.658384 0.284682
C -2.991728 -0.238606 -0.155846
O -1.794681 0.382689 0.218734
C -0.630094 -0.320370 -0.127022
O -0.757519 -1.402426 -0.690134
C 0.520432 0.397570 0.240466
H 0.443202 1.348139 0.770297
S 2.067129 -0.307477 0.009837
C 2.877159 1.024757 -0.958237
O 2.909191 -0.283194 1.280214
H -5.106733 0.221267 0.017515
H -4.100065 0.807593 1.373611
H -4.046354 1.645895 -0.191657
H -3.074481 -1.239299 0.303055
H -3.019437 -0.408635 -1.246705
H 2.835594 1.927904 -0.332659
H 3.925242 0.732842 -1.114159
H 2.354914 1.176973 -1.911452