41

C 0.000000 7.956165 0.246243
C 0.000000 6.670947 -0.573576
C 0.000000 5.413587 0.291096
C 0.000000 4.119634 -0.515948
C 0.000000 2.863334 0.351716
C 0.000000 1.562960 -0.457241
Si 0.000000 0.000000 0.599575
H 1.203483 0.000000 1.484666
H -1.203483 0.000000 1.484666
C 0.000000 -1.562960 -0.457241
C 0.000000 -2.863334 0.351716
C 0.000000 -4.119634 -0.515948
C 0.000000 -5.413587 0.291096
C 0.000000 -6.670947 -0.573576
C 0.000000 -7.956165 0.246243
H -0.887271 8.008045 0.895223
H 0.887271 8.008045 0.895223
H 0.000000 8.848307 -0.395386
H -0.880649 6.651946 -1.237336
H 0.880649 6.651946 -1.237336
H 0.881377 5.428842 0.956329
H -0.881377 5.428842 0.956329
H -0.881650 4.101439 -1.180426
H 0.881650 4.101439 -1.180426
H 0.880295 2.887041 1.017503
H -0.880295 2.887041 1.017503
H -0.881207 1.533931 -1.121318
H 0.881207 1.533931 -1.121318
H -0.881207 -1.533931 -1.121318
H 0.881207 -1.533931 -1.121318
H 0.880295 -2.887041 1.017503
H -0.880295 -2.887041 1.017503
H -0.881650 -4.101439 -1.180426
H 0.881650 -4.101439 -1.180426
H 0.881377 -5.428842 0.956329
H -0.881377 -5.428842 0.956329
H -0.880649 -6.651946 -1.237336
H 0.880649 -6.651946 -1.237336
H 0.000000 -8.848307 -0.395386
H 0.887271 -8.008045 0.895223
H -0.887271 -8.008045 0.895223