24

C 1.014072 -0.482289 -0.190015
H 0.771917 -0.752571 -1.238241
C -0.128731 -0.980553 0.688109
N -1.401425 -0.389260 0.325771
C -2.372732 -0.957405 -0.442490
N -3.374444 -0.143818 -0.658247
C -3.046301 1.012321 -0.006945
C -1.823993 0.886632 0.610669
N 1.226068 0.953749 -0.027482
C 2.659112 1.266812 -0.095284
C 3.349518 -0.068985 -0.400332
C 2.368907 -1.086707 0.181943
H -0.229621 -2.072594 0.602016
H 0.091341 -0.732927 1.737058
H -2.285702 -1.981819 -0.805225
H -3.705341 1.877722 -0.007270
H -1.216772 1.561531 1.206087
H 0.663386 1.503927 -0.667046
H 2.876409 2.028789 -0.858760
H 3.010773 1.670229 0.869479
H 3.427816 -0.217486 -1.488284
H 4.359790 -0.140408 0.023704
H 2.464990 -1.122932 1.279928
H 2.500499 -2.105125 -0.207669