14

O 2.356834 -1.128530 -0.000135
C 1.837576 0.000000 -0.000031
O 2.356834 1.128530 0.000077
C 0.276578 0.000000 0.000001
C -0.433492 -1.203037 -0.000033
C -1.828830 -1.207425 -0.000015
C -2.531471 0.000000 0.000029
C -1.828830 1.207425 0.000061
C -0.433492 1.203037 0.000050
H 0.160687 -2.119393 -0.000074
H -2.377196 -2.153723 -0.000040
H -3.624560 0.000000 0.000037
H -2.377196 2.153724 0.000094
H 0.160687 2.119393 0.000077