16

C 2.558970 -0.530451 0.000001
C 1.110771 -0.163510 -0.000019
C -0.021163 -0.951494 0.000001
C -1.163317 -0.091635 -0.000003
C -2.603689 -0.505817 0.000007
C -0.678144 1.197244 -0.000032
N 0.692507 1.140395 0.000033
H 3.079527 -0.142710 -0.889499
H 3.079362 -0.143309 0.889859
H 2.663293 -1.621999 -0.000355
H -0.027396 -2.039480 0.000001
H -2.849014 -1.110089 0.886279
H -3.264899 0.371403 -0.000149
H -2.848942 -1.110355 -0.886101
H -1.207782 2.146355 -0.000068
H 1.307727 1.941392 0.000072