27

O 0.882695 1.204608 -1.861038
C 1.531620 0.732491 -0.955501
O 2.738541 1.266861 -0.654960
C 3.623412 0.546304 0.207166
C 4.821698 1.439207 0.443885
C 2.909508 0.141793 1.486789
C 1.655750 -0.676960 1.197012
C 1.128249 -0.368261 -0.101794
I -0.622935 -1.289438 -0.619003
C -2.090374 0.113938 0.008833
C -2.088496 1.364345 -0.604161
C -3.033284 2.297288 -0.175508
C -3.945119 1.970643 0.828530
C -3.918889 0.710413 1.424481
C -2.977542 -0.237251 1.020659
O 1.191009 -1.461210 2.002968
H 3.935614 -0.369904 -0.325988
H 4.510117 2.354759 0.966273
H 5.569754 0.918213 1.056662
H 5.278961 1.722627 -0.512789
H 3.561385 -0.455135 2.139100
H 2.603828 1.043143 2.044763
H -1.351053 1.601502 -1.374675
H -3.051777 3.286941 -0.633959
H -4.679731 2.707977 1.155200
H -4.625376 0.461754 2.217535
H -2.933320 -1.217423 1.496929