12

C 0.000003 1.459536 -0.000008
C 0.000000 0.124163 0.000015
C -1.272529 -0.679056 -0.000005
C 1.272526 -0.679061 0.000009
H 0.933477 2.027247 -0.000017
H -0.933470 2.027250 -0.000055
H -1.315877 -1.334859 -0.884280
H -1.315956 -1.334742 0.884355
H -2.160940 -0.034385 -0.000084
H 1.315886 -1.334854 0.884290
H 1.315937 -1.334756 -0.884345
H 2.160939 -0.034392 0.000066