48

H -0.041084 2.508743 0.280845
P 0.003039 1.214271 -0.381169
N 1.230584 0.506348 0.623446
C 2.538557 0.144490 0.209357
C 2.943024 -1.204632 0.200357
C 1.981696 -2.303962 0.566871
C 4.247586 -1.509035 -0.191643
C 5.150392 -0.523073 -0.596816
C 6.539549 -0.892548 -1.048485
C 4.716740 0.803722 -0.597339
C 3.427264 1.156442 -0.194834
C 2.988012 2.596608 -0.178703
C 0.666282 0.093823 1.849004
C -0.677833 0.055181 1.822156
N -1.213921 0.430444 0.573206
C -2.533602 0.099997 0.163676
C -3.461584 1.130087 -0.056837
C -3.049206 2.566319 0.127349
C -4.762051 0.796713 -0.445620
C -5.162003 -0.529872 -0.606144
C -6.572358 -0.881943 -1.001674
C -4.215779 -1.536368 -0.387190
C -2.902964 -1.246666 -0.016796
C -1.880603 -2.342439 0.117798
H 0.969451 -2.058244 0.220032
H 2.295676 -3.255692 0.118643
H 1.916324 -2.448947 1.655875
H 4.561401 -2.556858 -0.199464
H 6.520682 -1.323104 -2.061660
H 7.198304 -0.014341 -1.070882
H 6.987866 -1.642098 -0.381407
H 5.406859 1.593219 -0.906559
H 2.297974 2.818912 -1.010127
H 2.457347 2.832208 0.755030
H 3.848461 3.270433 -0.279510
H 1.314311 -0.146635 2.690103
H -1.345437 -0.219016 2.637657
H -2.397817 2.905325 -0.695277
H -3.924842 3.227634 0.147649
H -2.481389 2.694031 1.060190
H -5.485201 1.598859 -0.614453
H -6.582290 -1.547925 -1.876697
H -7.090554 -1.406858 -0.184944
H -7.153750 0.015718 -1.248944
H -4.504596 -2.581625 -0.528450
H -1.078104 -2.195086 -0.621834
H -1.402933 -2.352255 1.107996
H -2.335602 -3.325059 -0.059757