70

C 0.220510 7.113199 0.293545
C 0.205002 5.840701 1.132461
C 0.091521 4.572960 0.291068
C 0.073548 3.292279 1.118329
C -0.037028 2.024522 0.275380
C -0.064780 0.734417 1.100116
Si -0.144215 -0.834408 0.047145
C -1.685885 -0.797061 -1.047917
C -3.001050 -0.648152 -0.278728
C -4.238290 -0.637655 -1.172936
C -5.544871 -0.484601 -0.402020
C -6.782094 -0.476729 -1.294873
C -8.080959 -0.322376 -0.512303
C 1.389438 -0.933422 -1.056899
C 2.720334 -0.636911 -0.359347
C 3.925483 -0.707416 -1.293661
C 5.249811 -0.408748 -0.599535
C 6.456191 -0.479327 -1.530981
C 7.773150 -0.179426 -0.824571
C -0.263101 -2.351020 1.185314
C -0.454468 -3.687376 0.420379
C 0.328927 -4.750836 1.219131
C 1.299638 -3.921743 2.025115
C 0.962276 -2.629009 2.026374
H 0.303402 8.012446 0.919699
H 1.069054 7.111951 -0.407165
H -0.700085 7.202350 -0.302768
H 1.121078 5.785972 1.744131
H -0.634587 5.875051 1.846784
H -0.825150 4.623965 -0.322789
H 0.932233 4.533841 -0.424044
H 0.989322 3.238459 1.732809
H -0.768547 3.326505 1.831577
H -0.947882 2.086851 -0.346398
H 0.807271 1.994616 -0.437048
H 0.831167 0.684375 1.744178
H -0.927118 0.747985 1.789685
H -1.582372 0.027263 -1.775581
H -1.706540 -1.723245 -1.649676
H -3.099722 -1.467079 0.456093
H -2.981818 0.283528 0.314559
H -4.146414 0.181649 -1.907330
H -4.266102 -1.570925 -1.762233
H -5.632271 -1.302928 0.334479
H -5.514175 0.449422 0.186522
H -6.690362 0.340164 -2.030137
H -6.808852 -1.410385 -1.881323
H -8.957388 -0.319481 -1.175225
H -8.206584 -1.145158 0.207609
H -8.087286 0.619002 0.057605
H 1.427671 -1.935140 -1.520507
H 1.245949 -0.228075 -1.895186
H 2.685219 0.366953 0.100476
H 2.870434 -1.346036 0.472382
H 3.969237 -1.711005 -1.751780
H 3.779745 0.001051 -2.128137
H 5.203030 0.594298 -0.139560
H 5.391583 -1.117746 0.235190
H 6.498699 -1.481479 -1.989493
H 6.310163 0.228828 -2.363820
H 8.627051 -0.236087 -1.514002
H 7.762615 0.829235 -0.384583
H 7.952616 -0.894261 -0.007357
H -1.120345 -2.164553 1.861929
H -1.514148 -3.944492 0.283748
H -0.013217 -3.608923 -0.587492
H -0.327941 -5.323552 1.897615
H 0.821872 -5.487099 0.566858
H 2.133802 -4.348772 2.584645
H 1.484888 -1.855243 2.594394