42

C -3.877083 -1.746596 -1.314141
C -2.726013 -1.136240 -0.519691
C -1.724357 -2.239625 -0.146245
O -2.096169 -0.160093 -1.300276
B -1.434344 0.806995 -0.380596
C 0.170651 0.482139 -0.224198
C 0.825896 0.534159 1.016158
C 2.193058 0.290489 1.142019
C 2.944708 -0.021339 0.007367
C 4.398266 -0.345119 0.124517
F 4.634380 -1.668295 0.190707
F 5.108600 0.097697 -0.925120
F 4.959201 0.184951 1.221853
C 2.322119 -0.086968 -1.242859
C 0.956671 0.163758 -1.344824
C -1.633889 2.340553 -0.915483
C -1.142112 3.387596 0.082506
H -1.117623 2.471014 -1.885358
O -2.103076 0.564133 0.937414
C -3.168662 -0.321859 0.747677
C -4.451981 0.475806 0.470850
C -3.358950 -1.165655 2.005424
H -4.480818 -2.429250 -0.693860
H -4.525694 -0.958233 -1.716720
H -3.470276 -2.316563 -2.163415
H -1.247610 -2.599984 -1.070216
H -0.937153 -1.835203 0.505585
H -2.208547 -3.089379 0.361438
H 0.226820 0.762948 1.902195
H 2.684650 0.343208 2.115848
H 2.915422 -0.332144 -2.127232
H 0.466993 0.102447 -2.321348
H -2.709189 2.498437 -1.118029
H -1.313552 4.428608 -0.243430
H -1.648679 3.250442 1.051583
H -0.060971 3.277623 0.270732
H -4.356956 1.011372 -0.484217
H -5.349063 -0.163633 0.437899
H -4.573733 1.219350 1.272736
H -3.691488 -0.519055 2.832066
H -4.115591 -1.953335 1.854866
H -2.410825 -1.631723 2.303328