30

O -0.638137 -1.577551 -0.489108
C -0.819396 -0.398527 -0.161448
C 0.239100 0.546638 0.095434
H 0.044344 1.594010 0.292234
N 1.570857 0.228234 0.060713
C 2.496432 1.221153 0.302092
C 3.852276 0.989161 0.291013
C 4.355411 -0.287462 0.029590
C 3.418818 -1.287322 -0.215125
C 2.059077 -1.033266 -0.200972
N -2.114012 0.072318 -0.038851
C -2.471488 1.378128 0.475244
C -2.559424 2.453548 -0.604679
C -3.192246 -0.840504 -0.382610
C -3.588580 -1.747279 0.777084
H 2.075204 2.203997 0.503899
H 4.514483 1.831384 0.493217
H 5.425466 -0.487363 0.017367
H 3.729661 -2.310256 -0.429693
H 1.293670 -1.780283 -0.394303
H -3.445231 1.279954 0.981290
H -1.761027 1.672525 1.261811
H -1.590007 2.577110 -1.108643
H -3.297707 2.170610 -1.368996
H -2.859487 3.421795 -0.178462
H -4.050296 -0.235684 -0.717170
H -2.863522 -1.453333 -1.231598
H -4.422417 -2.406229 0.494835
H -2.727712 -2.369254 1.056526
H -3.898121 -1.158042 1.653770