48

C -4.248705 -2.383249 0.289839
N -2.980413 -1.713384 0.150590
C -2.874764 -0.358350 0.119534
O -3.789713 0.432268 0.175534
C -1.398825 -0.015278 -0.018489
H -1.056550 0.406894 0.950278
C -1.137157 1.015706 -1.140264
C -0.869174 2.405109 -0.615599
C 0.370492 3.021761 -0.814914
C 0.623240 4.295785 -0.304422
C -0.363290 4.967190 0.414542
C -1.602118 4.357838 0.620905
C -1.854495 3.086241 0.111616
N -0.798791 -1.307160 -0.267065
C 0.564745 -1.467666 -0.180930
C 1.459581 -0.486637 0.061924
C 2.917661 -0.656800 0.076425
C 3.714149 0.372837 0.604417
C 5.100724 0.258097 0.658567
C 5.729767 -0.891188 0.182591
C 4.953877 -1.918247 -0.356738
C 3.569076 -1.800786 -0.416544
C -1.703625 -2.415500 0.075385
C -1.354899 -3.037267 1.432647
C -1.716782 -3.466989 -1.031129
H -5.014417 -1.603656 0.385206
H -4.477295 -3.001924 -0.591204
H -4.272193 -3.019029 1.188329
H -0.278097 0.667752 -1.729991
H -2.010649 1.031634 -1.809731
H 1.147516 2.496436 -1.377158
H 1.595179 4.763676 -0.470711
H -0.168961 5.963696 0.814497
H -2.379675 4.878796 1.182296
H -2.820247 2.599929 0.273022
H 0.906587 -2.493063 -0.352473
H 1.100570 0.523544 0.275201
H 3.227702 1.274948 0.983364
H 5.694091 1.073159 1.076521
H 6.815894 -0.983582 0.222131
H 5.434111 -2.816838 -0.748204
H 2.989197 -2.604526 -0.874065
H -1.307827 -2.253887 2.202365
H -2.108878 -3.781339 1.726529
H -0.380374 -3.542761 1.388217
H -0.712869 -3.895339 -1.158698
H -2.401102 -4.291107 -0.783653
H -2.026452 -3.003386 -1.977199