23

C 3.984643 -1.687643 0.022032
C 2.739992 -0.883952 0.342863
O 1.931942 -1.215805 1.172105
N 2.612570 0.267390 -0.417242
C 1.590783 1.227479 -0.258164
C 1.877100 2.536552 -0.309370
C 0.197421 0.722489 -0.147637
C -0.743607 1.398239 0.635243
C -2.067583 0.971766 0.689085
C -2.452703 -0.146672 -0.045317
Cl -4.104676 -0.683208 0.013716
C -1.529405 -0.844110 -0.823129
C -0.210855 -0.407953 -0.865846
H 4.016527 -1.946324 -1.045670
H 4.887406 -1.106821 0.261655
H 3.971337 -2.600274 0.625697
H 3.423101 0.561120 -0.948078
H 1.078978 3.277387 -0.320282
H 2.908682 2.886693 -0.376269
H -0.430314 2.257247 1.230640
H -2.801505 1.492287 1.303769
H -1.849793 -1.720563 -1.386153
H 0.516834 -0.948674 -1.473182