32

O -1.489760 -2.135483 -0.084996
C -1.453774 -0.901812 0.004606
C -2.767126 -0.152882 0.032319
C -3.881669 -0.809454 -0.500963
C -5.129318 -0.193323 -0.511833
C -5.283026 1.084564 0.027481
C -4.182844 1.737401 0.581904
C -2.931649 1.123195 0.583839
C -0.281867 -0.096581 0.042843
H -0.382325 0.975582 0.054384
N 1.006531 -0.590611 0.042490
C 2.112911 0.287791 -0.048510
C 1.940908 1.675445 -0.257069
C 3.031340 2.515770 -0.317950
C 4.341045 2.013254 -0.175424
C 4.528822 0.665140 0.001237
C 3.430736 -0.232761 0.057864
C 3.640293 -1.629136 0.196304
C 2.542160 -2.447862 0.208998
C 1.248415 -1.921261 0.132644
H -3.738061 -1.814687 -0.899026
H -5.988845 -0.712319 -0.939465
H -6.261444 1.567738 0.024743
H -4.301080 2.727875 1.024715
H -2.087734 1.633182 1.051754
H 0.953996 2.104883 -0.397682
H 2.871815 3.581188 -0.487100
H 5.195196 2.689632 -0.218510
H 5.533179 0.248550 0.095920
H 4.655364 -2.018813 0.274173
H 2.636895 -3.530175 0.292865
H 0.353270 -2.539441 0.156023