33

C 3.222699 0.436907 1.595315
Si 2.675250 -0.273329 -0.050175
O 1.002285 -0.531727 -0.042874
C -0.021086 0.345224 0.062546
C 0.104493 1.673293 0.243973
C -1.112167 2.547192 0.409493
C -2.291217 2.004031 -0.392675
C -2.494459 0.528066 -0.153203
C -3.756732 -0.063091 -0.158843
C -3.902213 -1.441915 -0.000052
C -2.775005 -2.245733 0.157929
C -1.506705 -1.668821 0.165072
C -1.359791 -0.286809 0.020206
C 3.134832 0.841324 -1.484091
C 3.378016 -1.985880 -0.288739
H 2.865545 -0.198736 2.419246
H 4.322183 0.467199 1.642965
H 2.848956 1.455621 1.767174
H 1.094039 2.125482 0.335747
H -1.385131 2.606744 1.479639
H -0.886650 3.574830 0.090984
H -3.213557 2.557301 -0.165237
H -2.082287 2.150577 -1.467705
H -4.639238 0.566820 -0.293358
H -4.898395 -1.887201 -0.003785
H -2.883359 -3.324861 0.276960
H -0.611884 -2.279404 0.285537
H 4.229710 0.915393 -1.570576
H 2.746110 0.424915 -2.425324
H 2.732882 1.857833 -1.373316
H 3.076873 -2.645806 0.537852
H 3.011212 -2.426314 -1.227269
H 4.477208 -1.962700 -0.325696