14

C -2.473117 0.690243 0.000053
N -1.055273 0.443188 -0.000021
C -0.177116 1.488908 -0.000019
C 1.154450 1.290294 -0.000031
C 1.672047 -0.104419 -0.000088
O 2.888077 -0.293553 0.000001
N 0.757287 -1.113417 -0.000022
C -0.563697 -0.923918 0.000022
O -1.423277 -1.804369 0.000063
H -2.789037 1.257408 -0.893774
H -2.964357 -0.288805 -0.000304
H -2.789102 1.256746 0.894282
H -0.630155 2.486697 -0.000010
H 1.864744 2.116287 -0.000028