21

C 1.309215 0.000001 1.534669
C 1.196738 -0.000002 0.005281
C 0.428962 1.238058 -0.465709
C -1.066955 1.258557 -0.096989
C -1.708156 0.000002 0.043264
H -2.774977 0.000004 0.279115
O -1.603408 2.367498 0.015197
C 2.607376 -0.000005 -0.589355
C 0.428958 -1.238060 -0.465704
C -1.066958 -1.258554 -0.096982
O -1.603417 -2.367494 0.015195
H 0.310769 0.000001 1.993803
H 1.853900 -0.893129 1.882834
H 1.853899 0.893131 1.882831
H 0.869768 2.165474 -0.063548
H 0.494562 1.305428 -1.567899
H 3.170027 -0.893091 -0.269725
H 2.567221 -0.000005 -1.690240
H 3.170030 0.893080 -0.269726
H 0.494556 -1.305436 -1.567894
H 0.869762 -2.165476 -0.063541