61

N -0.408353 1.257702 -1.345501
C -1.578097 0.613680 -1.064588
C -2.751046 1.184514 -0.703501
C -3.958992 0.410276 -0.391591
C -5.214097 1.039872 -0.379934
C -6.376201 0.332670 -0.079259
C -6.314638 -1.027272 0.220244
C -5.072868 -1.665359 0.226384
C -3.911822 -0.958554 -0.066296
C -0.331097 2.690509 -1.549676
C 0.879828 2.829542 -2.466395
C 1.807596 1.694292 -2.019407
C 0.878092 0.584209 -1.469895
C 1.392219 -0.064781 -0.116462
C 0.462497 -1.230226 0.304292
C 0.211751 -2.255214 -0.623349
C -0.580916 -3.351740 -0.302311
C -1.129517 -3.470157 0.976301
C -0.855593 -2.487530 1.920574
C -0.064354 -1.382836 1.590467
C 2.754087 -0.758460 -0.309129
C 3.395231 -1.281995 0.825826
C 4.588532 -1.985250 0.724875
C 5.172991 -2.200359 -0.525823
C 4.540695 -1.709365 -1.661149
C 3.341317 -0.997743 -1.553928
C 1.468857 1.064002 0.923165
C 0.295878 1.609869 1.470786
C 0.340699 2.705074 2.330746
C 1.560140 3.293450 2.663407
C 2.731890 2.771881 2.123413
C 2.684251 1.672353 1.265240
H -1.519777 -0.472444 -1.152279
H -2.828868 2.271694 -0.623230
H -5.273557 2.104359 -0.618514
H -7.337595 0.849672 -0.080793
H -7.222893 -1.583034 0.457433
H -5.004440 -2.725701 0.477865
H -2.949513 -1.472996 -0.012074
H -1.261748 3.045422 -2.017828
H -0.197301 3.238118 -0.597723
H 0.564169 2.673939 -3.508338
H 1.357885 3.815299 -2.399361
H 2.433959 1.339026 -2.845598
H 2.485349 2.044589 -1.229801
H 0.779275 -0.231924 -2.204601
H 0.659914 -2.207456 -1.617737
H -0.759917 -4.124333 -1.051667
H -1.752033 -4.328144 1.234330
H -1.258504 -2.571241 2.931055
H 0.140236 -0.640744 2.360541
H 2.937529 -1.134933 1.806886
H 5.062425 -2.376279 1.626573
H 6.108999 -2.754312 -0.609801
H 4.975876 -1.877844 -2.647625
H 2.871519 -0.645173 -2.470206
H -0.675173 1.180260 1.220885
H -0.590687 3.100828 2.739557
H 1.594751 4.152056 3.335628
H 3.696433 3.221057 2.365223
H 3.618254 1.290202 0.851546