14

C 2.074136 0.013857 -0.194521
C 0.691206 -0.045559 0.394280
O -0.034901 1.126389 0.088084
C -1.374476 0.765511 -0.176498
C -1.385370 -0.755173 0.043959
O -0.038425 -1.102989 -0.159015
H 2.614351 0.878039 0.211796
H 2.626160 -0.903846 0.045511
H 1.990043 0.117061 -1.284101
H 0.728108 -0.163347 1.499511
H -2.063624 1.294078 0.499934
H -1.627293 1.029985 -1.215359
H -1.701402 -1.004826 1.073870
H -2.012712 -1.306157 -0.667040