27

C 2.488353 2.130902 0.023118
C 2.126753 0.684806 -0.005483
C 0.894311 0.166594 -0.101108
O -0.277545 0.781307 -0.170667
Si -1.810695 0.045163 0.012728
C -2.118764 -1.104509 -1.426986
C -1.860514 -0.853078 1.651903
C -2.978579 1.500929 -0.013242
O 0.842079 -1.200010 -0.155430
C 2.159521 -1.665481 0.152158
C 3.100002 -0.469447 -0.074552
H 1.580346 2.748580 0.031986
H 3.085513 2.386025 0.913420
H 3.086049 2.416367 -0.858672
H -1.385592 -1.922481 -1.420545
H -3.130460 -1.534708 -1.372892
H -2.027439 -0.563667 -2.380409
H -1.610837 -0.171210 2.478119
H -2.863985 -1.264618 1.839546
H -1.138926 -1.681885 1.652803
H -2.760803 2.191423 0.814346
H -2.881730 2.057280 -0.956893
H -4.022513 1.167084 0.082276
H 2.171018 -1.976781 1.209507
H 2.372526 -2.536986 -0.478694
H 3.609060 -0.514656 -1.054356
H 3.884738 -0.426722 0.696196