19

C -3.709431 0.047910 0.000346
O -2.599861 -0.808538 -0.000120
C -1.357251 -0.265649 -0.000062
C -1.122637 1.129642 -0.000091
C 0.170009 1.637516 -0.000089
C 1.245485 0.745574 -0.000061
N 2.608711 0.983301 -0.000085
C 3.151159 -0.194484 0.000116
N 2.237312 -1.223254 -0.000015
H 2.445533 -2.211628 -0.000086
C 0.988484 -0.645483 -0.000040
C -0.300678 -1.175690 -0.000042
H -4.599387 -0.591408 0.000461
H -3.728468 0.689231 0.897469
H -3.728962 0.689567 -0.896529
H -1.961651 1.822737 -0.000147
H 0.352416 2.712270 -0.000127
H 4.222431 -0.395263 0.000179
H -0.516016 -2.243546 -0.000026