46

C 3.295197 -2.524181 1.594177
O 2.326259 -1.602127 1.176084
C 2.672869 -0.636624 0.295052
C 3.960401 -0.490559 -0.227403
C 4.217273 0.525551 -1.150838
C 3.200297 1.380505 -1.557983
C 1.913841 1.221280 -1.034921
C 1.627648 0.222806 -0.105572
P 0.001063 -0.000115 0.742476
C -1.005906 1.296649 -0.106077
C -2.010970 1.044402 -1.038073
C -2.791864 2.078131 -1.562941
C -2.562563 3.386469 -1.154727
C -1.556970 3.672919 -0.228535
C -0.786656 2.631665 0.295457
O 0.220558 2.815193 1.178846
C 0.533902 4.115843 1.595866
C -0.619943 -1.520280 -0.105285
C 0.099059 -2.265543 -1.038050
C -0.408352 -3.457639 -1.562923
C -1.656625 -3.911031 -1.154002
C -2.405468 -3.182349 -0.226973
C -1.886235 -1.995811 0.297054
O -2.546851 -1.214333 1.180985
C -3.830254 -1.591301 1.598736
H 2.797136 -3.207605 2.290253
H 3.693824 -3.101354 0.743223
H 4.131035 -2.025121 2.111828
H 4.764232 -1.158749 0.078201
H 5.225238 0.637518 -1.553636
H 3.398944 2.168711 -2.284880
H 1.113921 1.886389 -1.365850
H -2.184886 0.019060 -1.370002
H -3.571561 1.855409 -2.292032
H -3.163395 4.202869 -1.558775
H -1.382274 4.703260 0.077903
H 0.834858 4.748889 0.744490
H -0.316657 4.590495 2.112505
H 1.374286 4.027146 2.292676
H 1.074352 -1.905031 -1.370634
H 0.172776 -4.022334 -2.292660
H -2.065262 -4.838633 -1.558162
H -3.385602 -3.544450 0.080019
H -4.529781 -1.644965 0.747888
H -3.817352 -2.565810 2.114300
H -4.171590 -0.819252 2.296655