53

C 0.000000 5.617768 0.299890
C 0.000000 4.365914 1.170009
C 0.000000 3.072077 0.356513
C 0.000000 1.804945 1.213752
Sn 0.000000 0.000000 0.000000
C 1.804945 0.000000 -1.213752
C 3.072077 0.000000 -0.356513
C 4.365914 0.000000 -1.170009
C 5.617768 0.000000 -0.299890
C 0.000000 -1.804945 1.213752
C 0.000000 -3.072077 0.356513
C 0.000000 -4.365914 1.170009
C 0.000000 -5.617768 0.299890
C -1.804945 0.000000 -1.213752
C -3.072077 0.000000 -0.356513
C -4.365914 0.000000 -1.170009
C -5.617768 0.000000 -0.299890
H 0.887504 5.644493 -0.350490
H -0.887504 5.644493 -0.350490
H 0.000000 6.534630 0.905873
H 0.880915 4.369029 1.833675
H -0.880915 4.369029 1.833675
H -0.880683 3.074883 -0.311911
H 0.880683 3.074883 -0.311911
H 0.881873 1.792151 1.875278
H -0.881873 1.792151 1.875278
H 1.792151 -0.881873 -1.875278
H 1.792151 0.881873 -1.875278
H 3.074883 0.880683 0.311911
H 3.074883 -0.880683 0.311911
H 4.369029 -0.880915 -1.833675
H 4.369029 0.880915 -1.833675
H 5.644493 0.887504 0.350490
H 5.644493 -0.887504 0.350490
H 6.534630 0.000000 -0.905873
H 0.881873 -1.792151 1.875278
H -0.881873 -1.792151 1.875278
H -0.880683 -3.074883 -0.311911
H 0.880683 -3.074883 -0.311911
H 0.880915 -4.369029 1.833675
H -0.880915 -4.369029 1.833675
H -0.887504 -5.644493 -0.350490
H 0.887504 -5.644493 -0.350490
H 0.000000 -6.534630 0.905873
H -1.792151 0.881873 -1.875278
H -1.792151 -0.881873 -1.875278
H -3.074883 -0.880683 0.311911
H -3.074883 0.880683 0.311911
H -4.369029 0.880915 -1.833675
H -4.369029 -0.880915 -1.833675
H -5.644493 -0.887504 0.350490
H -5.644493 0.887504 0.350490
H -6.534630 0.000000 -0.905873