18

C 3.357665 -0.052095 0.000020
C 1.865862 -0.082567 -0.000023
N 1.117003 1.073505 0.000012
H 1.479246 2.016675 -0.000142
C -0.210080 0.700891 -0.000011
C -1.406591 1.422661 -0.000014
C -2.583399 0.683587 -0.000005
C -2.569205 -0.725284 0.000015
C -1.376347 -1.435507 0.000021
C -0.176975 -0.711723 0.000002
N 1.131042 -1.157863 -0.000017
H 3.745021 0.463492 0.890917
H 3.722497 -1.084227 -0.000550
H 3.745069 0.464526 -0.890255
H -1.422038 2.513141 -0.000022
H -3.540413 1.207408 -0.000009
H -3.517230 -1.264884 0.000027
H -1.354042 -2.525403 0.000036