54

C 3.562008 -1.852635 0.485174
C 2.429437 -2.833563 0.337474
C 2.771320 -4.091656 -0.414021
C 1.204142 -2.637870 0.854726
C 0.704712 -1.444449 1.602157
Sn -0.133207 -0.029547 0.152892
C -1.121003 1.649263 1.121154
C -1.793698 2.584598 0.114915
C -2.476194 3.790307 0.759944
C -3.153636 4.706288 -0.252387
C 1.522264 0.710359 -1.041717
C 2.380307 1.736804 -0.301006
C 3.627975 2.162357 -1.073272
C 4.477061 3.182031 -0.323785
C -1.578786 -1.112809 -1.052570
C -2.715097 -1.706217 -0.219448
C -3.741980 -2.478016 -1.047143
C -4.870738 -3.063386 -0.207004
H 4.344190 -2.258487 1.148472
H 4.042538 -1.666655 -0.489471
H 3.239790 -0.885018 0.891231
H 3.610953 -4.619542 0.067752
H 1.916559 -4.779417 -0.463767
H 3.092227 -3.862686 -1.443632
H 0.461595 -3.425746 0.675624
H -0.083704 -1.727259 2.313939
H 1.494725 -0.934472 2.171492
H -1.863343 1.261939 1.838330
H -0.374105 2.201152 1.715697
H -1.051311 2.949696 -0.619167
H -2.544456 2.026841 -0.474353
H -3.216125 3.428630 1.493773
H -1.726571 4.356791 1.337573
H -3.639252 5.563053 0.235628
H -2.425133 5.101328 -0.976830
H -3.924191 4.163168 -0.820522
H 2.129717 -0.163036 -1.332672
H 1.133191 1.143118 -1.977885
H 1.777600 2.634089 -0.070816
H 2.697260 1.339072 0.681542
H 4.228564 1.264191 -1.296769
H 3.319463 2.572076 -2.049782
H 4.824058 2.774294 0.637990
H 5.364097 3.476177 -0.902259
H 3.899555 4.093618 -0.107163
H -1.982945 -0.432303 -1.820292
H -1.042775 -1.910416 -1.593011
H -2.302336 -2.380875 0.553054
H -3.237705 -0.904292 0.333926
H -4.156079 -1.804132 -1.815937
H -3.223861 -3.282814 -1.595211
H -4.478593 -3.761797 0.547848
H -5.416080 -2.270310 0.327074
H -5.595745 -3.611065 -0.825154