16

H -0.814535 0.739349 1.742788
N 0.000019 0.188386 1.471422
C 0.000000 -0.005207 0.019057
C -0.000034 1.325457 -0.746782
C 1.251565 -0.807019 -0.338409
C -1.251552 -0.807059 -0.338369
H 0.814600 0.739320 1.742768
H 0.891289 1.918872 -0.488539
H -0.000038 1.169377 -1.836424
H -0.891377 1.918838 -0.488529
H 1.259635 -1.757141 0.213285
H 1.291078 -1.017303 -1.417052
H 2.160699 -0.246227 -0.068809
H -2.160692 -0.246302 -0.068721
H -1.291104 -1.017329 -1.417014
H -1.259567 -1.757187 0.213316