10

O 2.054513 -0.022148 0.013394
C 0.843013 0.123133 0.004834
N 0.066547 1.182352 0.091163
C -1.290116 0.767583 -0.100785
C -1.261864 -0.760534 0.124938
O 0.063557 -1.100840 -0.127110
H -2.002428 1.260874 0.591252
H -1.670827 0.992345 -1.127410
H -1.538897 -1.005971 1.173813
H -1.944437 -1.320903 -0.539984