10

H -2.067052 0.208746 -0.076117
N -1.198843 -0.320840 -0.119233
C -0.052487 0.558928 0.053869
C 1.240235 -0.236880 -0.027286
H -1.238000 -0.992873 0.646097
H -0.069522 1.303359 -0.757832
H -0.063560 1.135719 1.001313
H 1.286017 -0.785931 -0.977804
H 2.119568 0.417537 0.049608
H 1.297968 -0.972968 0.789872