16

C -2.248390 0.030459 -0.044287
C -0.754508 0.075118 -0.002043
C 0.030434 1.158175 -0.027195
C 1.492823 0.807432 0.099391
C 1.502132 -0.708798 -0.181733
C 0.074544 -1.183863 0.144339
H -2.680631 1.036095 -0.130170
H -2.597682 -0.573443 -0.896789
H -2.649877 -0.443518 0.865748
H -0.340343 2.184276 -0.081898
H 2.137502 1.370006 -0.592652
H 1.854383 1.035808 1.118050
H 1.694876 -0.871026 -1.252662
H 2.278544 -1.248287 0.377181
H -0.010411 -1.564950 1.178397
H -0.268570 -1.996092 -0.516040