13

C -2.523706 -0.264341 -0.000002
C -1.360637 0.396400 -0.000005
C -0.048992 -0.246383 0.000001
C 1.109301 0.427584 0.000002
C 2.470130 -0.214387 -0.000001
H -2.550858 -1.357249 0.000007
H -3.479385 0.261941 0.000015
H -1.362018 1.491952 0.000004
H -0.037084 -1.343246 -0.000004
H 1.064014 1.522524 -0.000001
H 2.609051 -0.852160 0.886127
H 2.608945 -0.852386 -0.885982
H 3.270754 0.535393 -0.000142