40

C 2.430072 -1.539552 -1.418561
C 0.913152 -1.397852 -1.246966
C 0.270095 -2.748327 -0.917229
Si 0.420584 -0.029713 -0.030909
C 1.016813 -0.391209 1.737953
C 2.507037 -0.051555 1.892343
C 0.212698 0.296666 2.849117
C 1.070112 1.638862 -0.659795
C 0.966880 1.820445 -2.179783
C 0.491003 2.840359 0.097343
N -1.374190 -0.015087 0.012607
C -2.149326 -0.904414 0.727833
C -3.473778 -0.716239 0.408687
C -3.522213 0.334051 -0.551551
C -2.224991 0.733524 -0.772923
H 2.929611 -0.576126 -1.607944
H 2.886885 -1.980051 -0.518314
H 2.668816 -2.208977 -2.259943
H 0.488060 -1.053233 -2.207872
H 0.616990 -3.129090 0.057730
H -0.826717 -2.683110 -0.883964
H 0.540433 -3.503114 -1.672778
H 0.905161 -1.484331 1.862867
H 2.661193 1.038619 1.854513
H 2.885671 -0.398375 2.866584
H 3.136124 -0.502501 1.111424
H 0.325264 1.390193 2.800991
H -0.861613 0.077114 2.797954
H 0.579553 -0.022800 3.837640
H 2.148975 1.588825 -0.419752
H -0.076003 1.830183 -2.530045
H 1.420434 2.777148 -2.483770
H 1.486711 1.019764 -2.725685
H 0.698152 2.782221 1.175451
H 0.927904 3.780950 -0.274013
H -0.600724 2.909251 -0.020981
H -1.692593 -1.615359 1.414109
H -4.313929 -1.266379 0.824185
H -4.407408 0.754872 -1.020950
H -1.841126 1.507353 -1.431768