24

O -0.455396 -1.699266 -0.179618
C -0.613277 -0.538230 0.129022
N -1.818206 0.103346 -0.027333
C -2.965073 -0.660256 -0.470922
C -2.091207 1.461922 0.383174
C 0.553290 0.315074 0.648980
H 0.210321 0.913251 1.504306
N 1.643485 -0.547359 1.075742
C 2.475749 -0.730336 -0.109775
C 2.500283 0.642363 -0.803227
C 1.098107 1.213584 -0.517385
H -3.723889 -0.729103 0.326818
H -3.429443 -0.183396 -1.348844
H -2.631796 -1.668237 -0.735930
H -1.186810 2.079507 0.376135
H -2.798542 1.915376 -0.327427
H -2.546869 1.512171 1.388507
H 2.181681 -0.056944 1.786691
H 3.471763 -1.103101 0.164896
H 1.993111 -1.481612 -0.751051
H 3.271452 1.277535 -0.340748
H 2.721922 0.582974 -1.877412
H 0.446236 1.146363 -1.401233
H 1.139850 2.272713 -0.225837