13

N -0.266384 1.630539 -0.224059
C -0.164227 0.282548 0.313135
C -1.221771 -0.626598 -0.259800
O -2.512674 -0.183595 0.157210
C 1.284206 -0.289737 0.047952
O 1.373644 -1.528239 0.009340
O 2.172465 0.577282 -0.051354
H -0.882228 2.197975 0.352761
H 0.685658 1.999408 -0.155991
H -0.288860 0.251227 1.418956
H -1.136297 -0.595445 -1.362612
H -1.012062 -1.653435 0.079514
H -3.158248 -0.734367 -0.293514