30

O -1.810238 0.895790 1.507364
C -1.724338 1.362783 0.353581
O -1.810621 2.534491 -0.047123
C -1.497806 0.280418 -0.767677
H -1.224435 0.793681 -1.702797
C -2.730804 -0.611297 -0.924668
C -2.576061 -1.615716 0.224862
C -1.052647 -1.758971 0.407703
N -0.478547 -0.702384 -0.421112
C 0.831276 -0.296420 -0.245252
C 1.257322 0.970629 -0.456222
C 2.696420 1.395338 -0.318884
C 3.531071 0.376078 0.452360
C 3.248938 -1.028029 -0.071762
C 1.787207 -1.401314 0.156966
H -3.664956 -0.034725 -0.867572
H -2.698767 -1.128084 -1.898915
H -2.991405 -1.171740 1.135693
H -3.066451 -2.580356 0.021581
H -0.793141 -1.618614 1.470261
H -0.688443 -2.752843 0.086935
H 0.522887 1.746173 -0.684312
H 3.159584 1.557861 -1.313383
H 2.741688 2.373174 0.188195
H 4.605139 0.613840 0.379937
H 3.258254 0.417881 1.520934
H 3.465643 -1.052385 -1.154113
H 3.909193 -1.771103 0.404130
H 1.624288 -1.646655 1.221571
H 1.534150 -2.312655 -0.408327