29

C 3.333667 -0.119741 0.548471
C 2.058719 -0.605806 -0.078463
C 2.032545 -2.020831 -0.579192
C 0.980889 0.184656 -0.178052
O -0.176531 -0.187747 -0.774670
Si -1.643773 -0.236095 0.088840
C -1.256260 -0.820606 1.822158
C -2.425898 1.464949 0.108472
C -2.700174 -1.443232 -0.865949
O 0.944622 1.442584 0.353965
C 0.854695 2.472148 -0.612211
H 4.171800 -0.194482 -0.163567
H 3.247516 0.919434 0.886320
H 3.600429 -0.744211 1.416974
H 2.235464 -2.728263 0.241951
H 1.064957 -2.271245 -1.030143
H 2.818489 -2.179882 -1.335395
H -0.582748 -0.105207 2.317813
H -2.170769 -0.911188 2.427095
H -0.756158 -1.800512 1.800823
H -2.571729 1.847046 -0.913164
H -3.410635 1.430529 0.599301
H -1.792319 2.174307 0.660731
H -2.222724 -2.433344 -0.899364
H -3.693990 -1.554541 -0.407544
H -2.837520 -1.097301 -1.900995
H 1.771586 2.507137 -1.223452
H -0.011554 2.319629 -1.274567
H 0.738886 3.419506 -0.072343