52

C 2.495378 5.035649 -1.402741
C 1.876981 3.794898 -0.814436
C 0.653331 3.302791 -1.269468
C 0.089392 2.161325 -0.699859
C 2.515106 3.108499 0.225639
C 1.966786 1.970556 0.819293
C 2.708094 1.267046 1.926789
C 0.727729 1.484249 0.343398
P -0.000202 -0.000077 1.163686
C -1.649534 -0.111780 0.343375
C -2.690186 0.718356 0.818849
C -2.451409 1.712507 1.925861
C -3.949882 0.623672 0.225375
C -4.225157 -0.272730 -0.814248
C -5.608644 -0.356819 -1.403304
C -3.187246 -1.086773 -1.268541
C -1.916674 -1.003744 -0.699316
C 0.921154 -1.372402 0.343183
C 1.826897 -1.158005 -0.700031
C 2.534118 -2.216675 -1.269311
C 2.348746 -3.522578 -0.814297
C 3.115094 -4.678151 -1.402009
C 1.434840 -3.732384 0.225287
C 0.722961 -2.688663 0.818801
C -0.257789 -2.979137 1.925362
H 2.427458 5.878542 -0.698036
H 3.560643 4.880338 -1.625132
H 1.989248 5.331810 -2.330780
H 0.133714 3.811940 -2.084211
H -0.864503 1.790543 -1.081175
H 3.477650 3.477801 0.591397
H 2.067605 1.143160 2.812769
H 3.018376 0.257307 1.614119
H 3.606481 1.826895 2.216647
H -1.731616 2.485736 1.613264
H -3.385315 2.211020 2.215364
H -2.024362 1.219744 2.812071
H -4.751044 1.272592 0.591096
H -5.998925 0.642608 -1.642687
H -5.615031 -0.958169 -2.321622
H -6.309279 -0.820006 -0.691844
H -3.368603 -1.792285 -2.082404
H -1.118728 -1.645102 -1.079675
H 1.982588 -0.146276 -1.080643
H 3.235366 -2.021076 -2.083576
H 3.882818 -5.036321 -0.699117
H 2.449520 -5.525612 -1.619129
H 3.620291 -4.389260 -2.332780
H 1.273409 -4.750708 0.590853
H -0.046114 -2.361628 2.810988
H -1.287218 -2.743731 1.611422
H -0.221919 -4.036940 2.215620