27

C 0.426872 2.391554 -0.000681
C -0.268948 1.240233 -0.000617
O 0.294649 0.006738 -0.001114
Si 1.924013 -0.453655 0.000080
C 2.763980 0.167098 1.554789
C 1.843702 -2.320241 -0.000089
C 2.766368 0.167107 -1.553344
C -1.733036 1.211393 -0.000062
C -2.425474 0.065051 -0.000127
O -3.770106 0.038723 0.000331
C -4.357575 -1.237980 0.000324
H -0.107795 3.339595 -0.000276
H 1.515946 2.416180 -0.001193
H 2.193765 -0.145436 2.442345
H 3.776172 -0.258600 1.633502
H 2.853208 1.261701 1.579650
H 1.312500 -2.685124 -0.891306
H 2.852685 -2.758860 0.001122
H 1.310369 -2.685135 0.889854
H 2.857048 1.261605 -1.577520
H 3.778102 -0.259823 -1.631290
H 2.196666 -0.144219 -2.441658
H -2.267212 2.162328 0.000386
H -1.910152 -0.902289 -0.000616
H -4.072785 -1.811967 -0.897085
H -4.072481 -1.812116 0.897543
H -5.443896 -1.095645 0.000519