43

C 0.554018 0.659204 4.135794
C 1.050452 0.458442 2.737461
C 2.285954 0.752848 2.318332
O 0.082629 -0.072323 1.940186
Si -0.058870 -0.057333 0.260498
C -1.801309 -0.675455 -0.019494
C -2.381565 -0.611350 -1.295771
C -3.666781 -1.099035 -1.523705
C -4.393643 -1.659592 -0.472834
C -3.833174 -1.727147 0.801851
C -2.546364 -1.237865 1.026130
C 0.129959 1.669642 -0.443770
C 1.347710 2.137551 -0.961827
C 1.466918 3.437757 -1.450755
C 0.365874 4.293279 -1.428567
C -0.853313 3.846257 -0.919627
C -0.968232 2.544514 -0.434224
C 1.221300 -1.218122 -0.464015
C 1.852269 -2.163189 0.358334
C 2.754610 -3.084361 -0.172173
C 3.038239 -3.074701 -1.537600
C 2.421328 -2.141092 -2.370025
C 1.521425 -1.219815 -1.834970
H -0.303057 1.348778 4.128192
H 0.198441 -0.298534 4.544141
H 1.338765 1.061625 4.786020
H 2.607582 0.573089 1.291517
H 3.005992 1.177698 3.015835
H -1.826993 -0.164327 -2.126744
H -4.104204 -1.039232 -2.521737
H -5.400656 -2.042458 -0.647893
H -4.401435 -2.162802 1.625582
H -2.109316 -1.287245 2.025782
H 2.217160 1.474815 -0.989796
H 2.421479 3.785169 -1.849562
H 0.457929 5.311163 -1.811644
H -1.717575 4.512286 -0.904264
H -1.931056 2.199618 -0.046714
H 1.638329 -2.171155 1.430598
H 3.238789 -3.811399 0.481931
H 3.744637 -3.795134 -1.953886
H 2.643168 -2.129601 -3.438485
H 1.051129 -0.487720 -2.498598