44

C -5.808860 -0.000823 -0.463934
C -4.334299 -0.000701 -0.156305
C -3.626915 -1.196344 0.000803
C -2.268017 -1.198162 0.308194
C -1.561559 -0.000372 0.466954
C -2.270281 1.197293 0.316652
C -3.629060 1.195200 0.009229
C -0.094008 0.000057 0.891017
C 0.677034 -1.241533 0.463182
C 0.652574 -1.701949 -0.860003
C 1.410931 -2.800675 -1.246280
C 2.224266 -3.481028 -0.329182
C 3.053488 -4.659777 -0.767257
C 2.242990 -3.023236 0.988794
C 1.480511 -1.920587 1.378308
C 0.676383 1.242153 0.463231
C 1.486765 1.915632 1.376457
C 2.249275 3.018243 0.987183
C 2.223880 3.481591 -0.328800
C 3.053485 4.660127 -0.766739
C 1.403754 2.806872 -1.243899
C 0.645139 1.708163 -0.857798
H -6.402549 -0.000231 0.463538
H -6.095767 0.889272 -1.040214
H -6.095807 -0.891513 -1.039235
H -4.147698 -2.148920 -0.123204
H -1.748178 -2.150819 0.423858
H -1.752058 2.150023 0.438949
H -4.151634 2.147651 -0.108095
H -0.091287 0.000029 1.993662
H 0.016519 -1.201509 -1.593691
H 1.371649 -3.142990 -2.283434
H 3.849851 -4.343671 -1.458014
H 3.528094 -5.154796 0.090021
H 2.438786 -5.402978 -1.295320
H 2.861756 -3.537283 1.727767
H 1.514395 -1.582564 2.417067
H 1.526130 1.572998 2.413509
H 2.873461 3.527836 1.724685
H 3.849335 4.343884 -1.458055
H 2.438962 5.403945 -1.294090
H 3.528925 5.154385 0.090521
H 1.358966 3.153762 -2.279302
H 0.003290 1.212611 -1.589760