28

C 2.771243 1.839837 -0.001620
Si 2.603157 -0.034428 0.000162
C 0.784032 -0.492603 0.000687
C -0.211659 0.409230 -0.000974
C -1.665881 0.150201 -0.000550
C -2.545269 1.241854 -0.000038
C -3.925956 1.055405 0.000552
C -4.454072 -0.233748 0.000617
C -3.590512 -1.331596 -0.000012
C -2.212875 -1.142384 -0.000627
C 3.424334 -0.758638 -1.533117
C 3.424482 -0.755758 1.534705
H 2.302090 2.284170 0.889089
H 3.833532 2.127277 -0.001123
H 2.303325 2.282358 -0.893874
H 0.516045 -1.557715 0.002648
H 0.043391 1.476632 -0.002732
H -2.133706 2.253836 -0.000097
H -4.590903 1.920461 0.000961
H -5.534403 -0.385818 0.001076
H -3.996458 -2.344502 -0.000114
H -1.552135 -2.010623 -0.001312
H 4.500133 -0.526203 -1.548102
H 3.315521 -1.853367 -1.557477
H 2.972921 -0.353022 -2.450526
H 2.974067 -0.347596 2.451468
H 3.314668 -1.850330 1.561712
H 4.500521 -0.524347 1.548394