33

C 4.503917 0.014906 0.158845
N 3.119885 -0.080886 -0.238983
C 2.426377 1.184281 -0.117596
C 0.998719 1.067772 -0.625209
C 2.410045 -1.106275 0.497116
C 0.980020 -1.245984 -0.000438
N 0.279365 0.020031 0.089098
C -1.125025 -0.012949 -0.039115
C -1.806104 -1.122419 -0.387742
C -3.307694 -1.239577 -0.350497
C -3.950144 -0.113907 0.453703
C -3.338741 1.220594 0.046482
C -1.846577 1.254811 0.369771
H 4.623769 0.298151 1.227904
H 5.006475 -0.951135 0.005729
H 5.020217 0.769176 -0.452421
H 2.403996 1.531420 0.941156
H 2.960016 1.944942 -0.708093
H 0.499332 2.033041 -0.484974
H 1.023448 0.850395 -1.713111
H 2.931318 -2.067330 0.368170
H 2.389760 -0.877058 1.587176
H 0.997701 -1.627639 -1.043184
H 0.451686 -1.983006 0.620033
H -1.257410 -2.011639 -0.701781
H -3.707904 -1.232331 -1.380959
H -3.591061 -2.218278 0.069017
H -5.040416 -0.109878 0.308239
H -3.766922 -0.280708 1.528781
H -3.480678 1.362431 -1.038328
H -3.844591 2.059431 0.546803
H -1.685863 1.396427 1.452901
H -1.396392 2.132052 -0.115784