18

N -4.936176 -1.107839 0.017439
C -4.140480 -0.252927 0.017146
C -3.177425 0.772018 0.016218
H -3.535337 1.801867 0.029346
C -1.796022 0.517234 -0.002221
C -0.838833 1.585646 -0.007059
C 0.520608 1.355415 -0.026512
C 1.036271 0.047865 -0.045076
C 2.495779 -0.186636 0.002370
F 3.022545 -0.147878 1.249958
F 2.846830 -1.389197 -0.488642
F 3.196646 0.732944 -0.691491
C 0.123689 -1.021751 -0.040859
C -1.238113 -0.804557 -0.023005
H -1.210917 2.613305 -0.000136
H 1.212055 2.202145 -0.036042
H 0.505309 -2.045502 -0.061232
H -1.924908 -1.653605 -0.028457