32

C -5.160099 -0.935475 0.161760
N -4.303675 0.224003 0.127538
C -4.866307 1.549755 0.187067
C -2.939930 0.063999 0.018506
C -2.354367 -1.221314 -0.049818
C -0.979167 -1.369023 -0.154667
C -0.124327 -0.263760 -0.192448
C -0.699547 1.008968 -0.138521
C -2.073907 1.180180 -0.033671
C 1.349256 -0.509959 -0.296923
O 1.771427 -1.653155 -0.537315
C 2.242651 0.574776 -0.094430
S 3.860353 0.067101 -0.317169
C 4.770899 1.598975 -0.059546
C 4.381156 -0.855851 1.169282
H -6.202976 -0.612137 0.255311
H -5.072776 -1.542209 -0.756453
H -4.929644 -1.591681 1.018798
H -4.492763 2.117228 1.057317
H -4.636165 2.138545 -0.718331
H -5.956332 1.477324 0.274470
H -2.978101 -2.113174 -0.023884
H -0.525661 -2.359814 -0.214360
H -0.062450 1.893631 -0.200105
H -2.476164 2.191139 -0.001324
H 2.049986 1.493432 0.455451
H 4.474526 2.052111 0.895011
H 5.844176 1.375803 -0.067053
H 4.513840 2.264736 -0.891174
H 3.731161 -1.739842 1.156941
H 5.436451 -1.146122 1.080582
H 4.193686 -0.243004 2.059719