10

C -0.333002 -1.119478 -0.000141
C 0.982499 -0.711797 0.000140
C 0.982491 0.711807 -0.000112
C -0.333014 1.119474 0.000052
N -1.118451 -0.000006 0.000044
H -0.768949 -2.114455 -0.000273
H 1.850748 -1.365244 0.000241
H 1.850734 1.365265 -0.000204
H -0.768973 2.114447 0.000100
H -2.128247 -0.000011 0.000202