28

C 5.292694 -1.123973 0.200917
O 4.640380 0.116094 0.178662
C 3.293077 0.130512 0.062873
C 2.686085 1.394818 0.022573
C 1.310372 1.501381 -0.094336
C 0.503108 0.357297 -0.167529
C 1.116344 -0.894110 -0.138347
C 2.501346 -1.020154 -0.022109
C -0.981979 0.546667 -0.286801
O -1.441217 1.671706 -0.537579
C -1.829344 -0.572585 -0.085744
S -3.467694 -0.145898 -0.333254
C -4.302032 -1.720008 -0.076951
C -4.051267 0.760477 1.138957
H 4.973183 -1.735572 1.061562
H 5.111807 -1.693119 -0.726386
H 6.364853 -0.915586 0.289254
H 3.328636 2.273959 0.080997
H 0.816270 2.473111 -0.137864
H 0.509917 -1.796996 -0.230018
H 2.947651 -2.013260 -0.008009
H -1.600966 -1.479172 0.470337
H -3.995055 -2.151589 0.884219
H -5.385010 -1.551816 -0.099265
H -4.001347 -2.376923 -0.900994
H -3.446195 1.675748 1.128781
H -5.118238 0.996807 1.032940
H -3.846119 0.164429 2.036820