19

N -1.334958 -1.801910 -0.227279
C -1.208040 -0.469586 0.367234
C 0.102541 0.192028 -0.025542
C 1.339128 -0.576337 0.426683
C 2.683578 -0.015303 0.001134
N 2.681953 1.308760 -0.327219
O 3.704950 -0.675267 -0.017010
C -2.426592 0.477449 0.045361
O -2.230510 1.688810 0.250530
O -3.450507 -0.111532 -0.349770
H -2.342337 -1.981121 -0.166826
H -1.219698 -1.662491 -1.235306
H -1.200987 -0.589549 1.469115
H 0.117851 0.310867 -1.126146
H 0.056854 1.207018 0.397673
H 1.359986 -0.634734 1.529020
H 1.293883 -1.617306 0.076846
H 1.820921 1.834007 -0.379706
H 3.549415 1.719765 -0.642410