18

C -2.877532 0.322302 -0.073356
C -2.099198 -0.760705 -0.084317
C -0.863500 -0.920878 -0.918535
Si 0.670917 -0.307022 -0.008550
C 2.227134 -0.672819 -0.976451
Cl 0.483816 1.773162 0.107592
C 0.749631 -0.963868 1.737498
H -3.741546 0.391856 0.589527
H -2.669227 1.175703 -0.724564
H -2.334208 -1.584845 0.598992
H -0.702561 -1.975303 -1.196322
H -0.935392 -0.340129 -1.852102
H 2.161174 -0.252288 -1.990121
H 3.103698 -0.232006 -0.480434
H 2.385841 -1.758732 -1.060180
H 0.820439 -2.062466 1.737595
H 1.626316 -0.560149 2.263853
H -0.151457 -0.671289 2.295349