18

C 1.868349 -1.223853 0.000331
Si 0.426202 -0.020235 0.000109
C 1.052062 1.752797 -0.000435
C -1.017816 -0.297118 -1.200357
C -1.952781 0.034364 -0.000164
C -1.018069 -0.296054 1.200519
H 2.502042 -1.073207 0.887494
H 1.514516 -2.264673 0.004082
H 2.497388 -1.078236 -0.890998
H 1.670131 1.952840 -0.888612
H 0.212683 2.463069 -0.003173
H 1.665788 1.954675 0.890341
H -1.155635 0.309871 -2.104799
H -1.103157 -1.359940 -1.476121
H -2.188790 1.109788 -0.000657
H -2.912710 -0.504779 -0.000029
H -1.103442 -1.358640 1.477185
H -1.156114 0.311712 2.104403