15

C 2.460348 -0.626579 0.000004
C 1.043816 -0.154460 -0.000003
N 0.697039 1.164269 -0.000002
H 1.335061 1.948017 -0.000011
C -0.677884 1.231015 0.000009
C -1.105795 -0.074166 0.000000
C -2.504983 -0.598810 -0.000001
N -0.021349 -0.917108 -0.000008
H 3.004795 -0.279754 0.890759
H 2.451918 -1.721615 -0.000102
H 3.004861 -0.279578 -0.890641
H -1.219166 2.171854 0.000015
H -2.682571 -1.225883 -0.885467
H -2.682581 -1.225863 0.885479
H -3.235156 0.220700 -0.000013