44

C -0.401761 -1.429715 2.056948
C -0.688994 -0.922869 0.850594
N 0.328894 -0.480230 -0.045080
O 1.539487 -0.290160 0.614331
Si 2.794530 -1.090105 -0.248223
C 2.822889 -0.421434 -1.992052
C 4.332039 -0.646889 0.716557
C 2.435799 -2.923341 -0.201002
O -0.006913 0.690080 -0.706323
Si 0.138232 2.227065 0.043875
C 1.888827 2.860455 -0.161163
C -1.062460 3.250620 -0.955787
C -0.343779 2.142354 1.848832
C -2.056636 -0.900284 0.270953
C -2.259307 -1.101265 -1.101790
C -3.547014 -1.118233 -1.628120
C -4.651111 -0.925996 -0.796506
C -4.457857 -0.711898 0.566765
C -3.168542 -0.696196 1.096475
H -1.191062 -1.891620 2.648417
H 0.614463 -1.413330 2.445015
H 3.135047 0.633025 -2.000788
H 3.516244 -0.992764 -2.627304
H 1.814089 -0.481932 -2.426158
H 4.247436 -0.976835 1.762174
H 5.217107 -1.131201 0.277372
H 4.503020 0.439425 0.710564
H 1.449680 -3.121811 -0.646217
H 3.190415 -3.493893 -0.762856
H 2.424766 -3.292919 0.834842
H 2.181271 2.849066 -1.221822
H 1.975168 3.895721 0.202964
H 2.591966 2.233491 0.405451
H -2.080646 2.847788 -0.849704
H -1.065284 4.300054 -0.625055
H -0.796613 3.227049 -2.022750
H 0.332737 1.473569 2.398897
H -0.285944 3.148486 2.293205
H -1.371667 1.769572 1.968768
H -1.394493 -1.238554 -1.751300
H -3.690921 -1.280946 -2.697410
H -5.659785 -0.934895 -1.212405
H -5.313609 -0.546426 1.223141
H -3.017451 -0.507158 2.161103