28

C 3.232884 -0.034740 0.405207
C 2.586899 -1.152028 -0.406197
C 1.105273 -1.277314 -0.063760
C 0.401782 0.062921 -0.039024
C 1.092056 1.226414 0.004298
C 2.596586 1.304580 0.044757
N -0.977236 0.011169 -0.062697
C -1.782978 1.213309 -0.080774
C -3.208010 0.691415 -0.266499
C -3.159181 -0.675510 0.417054
C -1.776897 -1.200289 0.023653
H 3.079558 -0.236537 1.479109
H 4.319242 -0.004497 0.234272
H 2.692940 -0.922978 -1.479908
H 3.091364 -2.113961 -0.231993
H 0.603704 -1.936788 -0.789158
H 0.986875 -1.762420 0.921730
H 0.547532 2.171933 0.009070
H 2.909193 2.074346 0.768821
H 2.990100 1.642978 -0.932543
H -1.669962 1.783037 0.863422
H -1.470300 1.884860 -0.898684
H -3.967101 1.365139 0.151731
H -3.420580 0.564853 -1.339200
H -3.208059 -0.548622 1.509561
H -3.972071 -1.348911 0.115112
H -1.824249 -1.738171 -0.943718
H -1.378013 -1.904992 0.768963