17

C -2.526493 -0.044117 -0.249096
C -1.242184 -0.667515 0.283077
C 0.013380 0.032949 -0.228280
N 0.023566 1.426582 0.189397
C 1.273008 -0.716137 0.191872
O 2.380917 0.000827 -0.298258
H -3.416054 -0.526151 0.179336
H -2.551823 1.027161 -0.011809
H -2.580390 -0.142277 -1.343635
H -1.236073 -0.631076 1.387789
H -1.194522 -1.734945 0.011774
H -0.007371 0.025346 -1.333137
H 0.899072 1.846705 -0.120443
H 0.039653 1.467798 1.209938
H 1.293063 -0.785771 1.298795
H 1.246032 -1.748087 -0.206928
H 3.189846 -0.422477 0.003164