11

Cl 2.236136 0.000000 -0.000034
C 0.503838 0.000000 -0.000007
C -0.195333 1.203105 -0.000023
C -1.589141 1.138007 -0.000050
N -2.277575 0.000000 0.000028
C -1.589141 -1.138007 0.000108
C -0.195333 -1.203105 0.000033
H 0.332530 2.155963 -0.000040
H -2.172843 2.063674 -0.000028
H -2.172843 -2.063674 0.000064
H 0.332530 -2.155963 0.000022