15

C 2.208163 -0.034548 -0.050191
C 0.713665 -0.076545 0.000833
N 0.050390 -1.159929 -0.026536
C -1.373613 -0.856334 0.087143
C -1.524085 0.657212 -0.171497
C -0.119935 1.187136 0.140134
H 2.608360 -1.052075 -0.123835
H 2.547264 0.558108 -0.913391
H 2.608040 0.451628 0.852929
H -1.951611 -1.476002 -0.613291
H -1.704653 -1.138289 1.101463
H -1.760751 0.832080 -1.231100
H -2.315574 1.123982 0.428469
H -0.027844 1.565565 1.173152
H 0.218870 1.992989 -0.527174