21

C -3.773286 -0.316292 0.000020
C -2.300490 -0.076531 -0.000029
N -1.397732 -1.117663 -0.000071
H -1.625620 -2.101947 0.000271
C -0.135903 -0.564369 0.000014
C 1.148844 -1.116609 0.000018
C 2.230083 -0.240142 0.000019
C 3.644974 -0.761050 0.000075
C 2.004148 1.157472 -0.000014
C 0.730163 1.702890 -0.000035
C -0.364488 0.827621 -0.000016
N -1.721386 1.089959 -0.000057
H -4.084386 -0.881605 0.890898
H -4.280351 0.653912 -0.000696
H -4.084247 -0.882882 -0.890092
H 1.307629 -2.196698 0.000023
H 4.195058 -0.409285 -0.885518
H 4.194797 -0.409808 0.886040
H 3.668454 -1.858580 -0.000240
H 2.871205 1.822019 -0.000031
H 0.567021 2.780865 -0.000076