10

O -2.591148 -0.375760 -0.000085
C -1.654234 0.400829 0.000198
C -0.238738 0.128105 0.000037
C 0.775778 1.109402 -0.000002
N 1.974160 0.516025 0.000152
C 1.647837 -0.805036 0.000230
N 0.358102 -1.105081 -0.000536
H -1.862134 1.510645 0.000335
H 0.657794 2.197060 0.000111
H 2.423832 -1.578027 0.000148