19

O -3.006598 -1.455161 -0.000398
C -2.586724 -0.327971 -0.000215
C -1.147138 0.044191 -0.000069
C -0.738166 1.398956 0.000159
C 0.602209 1.736177 0.000291
C 1.537034 0.689571 0.000191
C 1.147012 -0.676873 -0.000036
C 2.356147 -1.455803 -0.000068
C 3.394954 -0.566912 0.000110
N 2.905339 0.721327 0.000284
C -0.218716 -0.990107 -0.000165
O -3.408560 0.736277 -0.000069
H -1.499635 2.178093 0.000234
H 0.919867 2.779729 0.000466
H 2.437107 -2.538519 -0.000214
H 4.466506 -0.748971 0.000144
H 3.468246 1.559617 0.000433
H -0.576455 -2.020948 -0.000338
H -4.311418 0.385405 -0.000162