28

N 0.000341 3.559713 -0.975159
C 0.000190 2.967884 0.037178
C 0.000013 2.198960 1.199525
H -0.000350 2.667279 2.182480
P -0.000001 0.474473 1.200805
O 0.000001 -0.214693 2.543267
C -1.417728 -0.188363 0.207945
C -1.918585 0.419073 -0.950471
C -2.995190 -0.154645 -1.628021
C -3.581764 -1.330206 -1.155279
C -3.092753 -1.930079 0.004828
C -2.016747 -1.358426 0.683845
C 1.417684 -0.188355 0.207891
C 1.918239 0.418793 -0.950812
C 2.994818 -0.154966 -1.628364
C 3.581655 -1.330292 -1.155361
C 3.092940 -1.929879 0.005015
C 2.016967 -1.358178 0.684046
H -1.477628 1.350948 -1.315107
H -3.383679 0.324596 -2.529299
H -4.424802 -1.774824 -1.689197
H -3.555419 -2.844233 0.384455
H -1.623346 -1.792725 1.606193
H 1.477087 1.350487 -1.315667
H 3.383075 0.324056 -2.529859
H 4.424664 -1.774949 -1.689294
H 3.555806 -2.843850 0.384838
H 1.623773 -1.792254 1.606588