46

C 3.618903 4.136738 1.682986
C 3.044615 2.756231 1.585822
S 2.430933 2.120363 0.092562
C 2.911961 1.820677 2.576697
C 2.309701 0.603292 2.122846
C 1.979389 0.597464 0.791587
B 1.209990 -0.548820 -0.112140
C -0.396680 -0.278903 -0.084530
C -0.969590 0.816274 -0.745634
C -2.346157 1.040670 -0.723191
C -2.925035 2.183998 -1.501564
F -3.088009 1.880832 -2.798448
F -4.134058 2.549212 -1.047808
F -2.148757 3.271342 -1.464658
C -3.199958 0.182263 -0.029661
C -2.642325 -0.908483 0.629860
C -3.517852 -1.870075 1.376423
F -4.803600 -1.488372 1.393283
F -3.490725 -3.098195 0.841397
F -3.141109 -2.011417 2.653348
C -1.263130 -1.137226 0.598560
O 1.658795 -0.462429 -1.514976
C 2.943502 -0.945318 -1.726993
C 3.106021 -2.391960 -1.224709
C 2.158803 -3.312229 -1.992285
C 4.552902 -2.841154 -1.388096
C 2.724192 -2.381984 0.266769
O 1.447934 -1.878391 0.473622
H 4.446521 4.286261 0.972171
H 2.863225 4.910191 1.473120
H 4.006875 4.309747 2.696848
H 3.239874 2.002446 3.602814
H 2.114604 -0.261854 2.759629
H -0.318659 1.507736 -1.288533
H -4.273714 0.364519 -0.001746
H -0.832211 -2.004155 1.106990
H 3.171441 -0.905410 -2.810089
H 3.702995 -0.316070 -1.209556
H 2.397897 -3.310828 -3.068659
H 2.234164 -4.348356 -1.622700
H 1.124002 -2.968216 -1.864020
H 5.239213 -2.173535 -0.842913
H 4.693823 -3.863608 -1.000572
H 4.848332 -2.838830 -2.450162
H 2.775099 -3.414636 0.664322
H 3.488574 -1.782832 0.810257