28

C -2.322799 -0.400678 -0.003342
C -0.998297 -1.047959 0.094297
N -0.023671 -0.528442 0.711279
C 1.223114 -1.249505 0.760533
C 2.400753 -0.427615 0.274289
C 2.304375 0.950973 0.075038
C 3.414919 1.680454 -0.351289
C 4.631628 1.042503 -0.581839
C 4.733570 -0.335365 -0.386517
C 3.624560 -1.063072 0.036442
C -3.339168 -1.013676 -0.742181
C -4.593667 -0.414896 -0.847484
C -4.837371 0.800967 -0.211589
C -3.825662 1.417159 0.530520
C -2.574391 0.821124 0.635377
H -0.906376 -2.030473 -0.411790
H 1.409846 -1.516593 1.815790
H 1.182010 -2.200039 0.192044
H 1.349474 1.445145 0.254929
H 3.325898 2.757278 -0.505020
H 5.498483 1.615314 -0.914969
H 5.680865 -0.845776 -0.568285
H 3.707690 -2.143236 0.183069
H -3.143156 -1.966801 -1.239401
H -5.382021 -0.898094 -1.426442
H -5.818698 1.271365 -0.292851
H -4.018506 2.368064 1.029699
H -1.769204 1.280469 1.210734