10

C 0.026127 -0.219155 1.205636
N 0.026127 0.577995 0.000000
C 0.026127 -0.219155 -1.205636
H 0.961392 -0.798084 1.263368
H -0.011412 0.430865 2.090743
H -0.812293 -0.944759 1.273106
H -0.771785 1.207855 0.000000
H -0.011412 0.430865 -2.090743
H 0.961392 -0.798084 -1.263368
H -0.812293 -0.944759 -1.273106