77

C -0.626881 7.418245 -0.255068
C -0.924115 6.131801 0.506242
C -0.248365 4.905417 -0.103855
C -0.530848 3.607291 0.656005
Si 0.269967 2.059317 -0.078581
C -0.444614 1.747735 -1.798638
C 2.127521 2.359446 -0.238946
C -0.034953 0.607060 1.090491
Si 0.015677 -1.132968 0.364783
H 0.043458 -2.116213 1.495581
C -1.535064 -1.502193 -0.639921
Si -3.198406 -1.158448 0.182698
C -3.135665 -1.622402 2.010780
C -3.668838 0.662664 0.010028
C -4.526648 -2.197717 -0.674007
C -5.961027 -1.917878 -0.219765
C -7.003934 -2.805592 -0.895550
C -8.427643 -2.503415 -0.443558
C 1.572747 -1.387056 -0.667601
Si 3.162096 -1.725944 0.295851
C 3.244509 -0.703989 1.881103
C 3.197864 -3.552290 0.759313
C 4.648673 -1.306175 -0.796687
C 6.011647 -1.668425 -0.202647
C 7.191729 -1.272110 -1.087742
C 8.540716 -1.650089 -0.488179
H 0.454489 7.621693 -0.276999
H -0.971380 7.347217 -1.297954
H -1.122119 8.285634 0.203459
H -0.598997 6.232972 1.555316
H -2.012871 5.959352 0.541177
H -0.575498 4.804447 -1.154070
H 0.840755 5.083177 -0.145198
H -0.184515 3.703333 1.700751
H -1.621448 3.440951 0.716659
H -0.276317 2.622071 -2.445731
H 0.029332 0.880589 -2.283740
H -1.528301 1.562351 -1.754652
H 2.551153 2.691513 0.722165
H 2.663840 1.449467 -0.548136
H 2.335397 3.140170 -0.986334
H 0.714335 0.679297 1.896748
H -1.016597 0.742176 1.576585
H -1.496581 -0.962860 -1.601386
H -1.498980 -2.578670 -0.885652
H -2.392517 -1.024159 2.559989
H -4.113569 -1.463217 2.490054
H -2.864597 -2.682082 2.135205
H -3.842958 0.919222 -1.046972
H -4.596748 0.873886 0.563318
H -2.889708 1.335445 0.398434
H -4.441820 -2.033919 -1.763246
H -4.283873 -3.263419 -0.511803
H -6.041474 -2.045464 0.874695
H -6.212773 -0.860756 -0.416389
H -6.923061 -2.682439 -1.988647
H -6.761458 -3.861948 -0.690589
H -8.534637 -2.646306 0.642516
H -8.698846 -1.460503 -0.667901
H -9.159723 -3.154908 -0.940964
H 1.407736 -2.251821 -1.333837
H 1.714278 -0.515062 -1.328388
H 2.407663 -0.955408 2.551554
H 4.178347 -0.911762 2.425182
H 3.206979 0.375912 1.672771
H 3.225011 -4.186598 -0.140094
H 4.078236 -3.794573 1.373414
H 2.300338 -3.820955 1.337173
H 4.517293 -1.814238 -1.768801
H 4.615058 -0.224017 -1.018922
H 6.131729 -1.187644 0.784726
H 6.056535 -2.755338 -0.013208
H 7.072810 -1.748016 -2.075717
H 7.152898 -0.184785 -1.268398
H 8.687493 -1.164354 0.488601
H 8.610547 -2.737038 -0.330142
H 9.374119 -1.351762 -1.139524