22

H 0.000031 1.357315 0.000000
C 0.000012 0.270554 0.000000
C 0.000001 -0.398149 1.246727
O 0.000013 0.532796 2.301852
C 0.000001 -0.030072 3.582688
C 0.000001 1.107304 4.586089
O -0.000022 -1.583361 1.532858
C 0.000001 -0.398149 -1.246727
O 0.000013 0.532796 -2.301852
C 0.000001 -0.030072 -3.582688
C 0.000001 1.107304 -4.586089
O -0.000022 -1.583361 -1.532858
H -0.879206 -0.683497 3.723040
H 0.879199 -0.683507 3.723053
H -0.000007 0.726447 5.618593
H 0.888092 1.740128 4.443935
H -0.888081 1.740137 4.443924
H 0.879199 -0.683507 -3.723053
H -0.879206 -0.683497 -3.723040
H -0.000007 0.726447 -5.618593
H -0.888081 1.740137 -4.443924
H 0.888092 1.740128 -4.443935