19

C 2.803046 0.889090 0.557147
C 2.574612 -0.438692 -0.101295
C 1.401102 -1.011134 -0.407174
C 0.047474 -0.449867 -0.216746
C -0.245129 0.906401 -0.427387
C -1.536866 1.394823 -0.240830
C -2.563185 0.537519 0.153046
C -2.291607 -0.817316 0.345856
C -1.002039 -1.304607 0.154710
H 1.903317 1.255444 1.068390
H 3.614693 0.809893 1.294764
H 3.114664 1.652882 -0.174294
H 3.475268 -1.017471 -0.330492
H 1.428163 -2.024828 -0.819548
H 0.543346 1.577873 -0.769770
H -1.744644 2.451909 -0.415284
H -3.574135 0.921847 0.296747
H -3.090891 -1.498059 0.643264
H -0.794231 -2.366791 0.302259