29

C 4.534704 -1.294935 0.540975
C 3.169193 -0.638680 0.593459
O 2.297317 -0.982541 1.350220
N 3.009616 0.381995 -0.328510
C 1.862211 1.194885 -0.442854
C 1.985263 2.508444 -0.685911
C 0.540643 0.517705 -0.392062
C 0.367959 -0.758268 -1.001733
C -0.860951 -1.361181 -1.027003
C -1.994778 -0.737016 -0.435085
C -3.281147 -1.338293 -0.440123
C -4.352278 -0.709794 0.148323
C -4.185184 0.551447 0.772854
C -2.952013 1.156333 0.793131
C -1.826759 0.532516 0.188772
C -0.540857 1.135108 0.194812
H 4.580775 -2.061748 1.320108
H 4.697721 -1.757909 -0.442786
H 5.330297 -0.554164 0.706748
H 3.843797 0.718730 -0.792714
H 1.106600 3.111897 -0.908727
H 2.963881 2.991907 -0.700051
H 1.230950 -1.245602 -1.458669
H -0.986791 -2.336383 -1.502066
H -3.403716 -2.311971 -0.919450
H -5.336056 -1.181338 0.138387
H -5.041700 1.039953 1.239893
H -2.817690 2.127410 1.274485
H -0.409952 2.095964 0.697325