33

C -0.587679 -1.281182 2.465716
N -1.122415 -1.246680 1.132217
C -0.307099 -1.670151 0.000132
N -1.122447 -1.246816 -1.131982
C -0.587755 -1.281483 -2.465495
C -2.000067 -0.255830 -0.706570
C -2.778415 0.636872 -1.419013
C -3.589118 1.535015 -0.692910
C -3.589096 1.535101 0.692880
C -2.778370 0.637046 1.419069
C -2.000045 -0.255744 0.706711
C 1.090268 -1.049560 0.000074
C 2.229045 -1.852283 0.000186
C 3.500566 -1.274253 0.000131
C 3.642358 0.109162 -0.000039
C 2.495589 0.907033 -0.000150
Cl 2.663453 2.636879 -0.000382
C 1.224385 0.344450 -0.000092
H 0.088694 -0.432746 2.684136
H -1.412166 -1.269305 3.192541
H -0.026603 -2.215168 2.609935
H -0.185945 -2.771191 0.000199
H -0.026651 -2.215469 -2.609603
H -1.412267 -1.269732 -3.192294
H 0.088582 -0.433054 -2.684053
H -2.761762 0.655020 -2.509072
H -4.211208 2.246916 -1.236463
H -4.211168 2.247069 1.236364
H -2.761684 0.655328 2.509124
H 2.120579 -2.939645 0.000313
H 4.389798 -1.906358 0.000216
H 4.625699 0.579164 -0.000094
H 0.344043 0.991541 -0.000178