25

C 2.435446 1.356762 0.482961
C 2.260081 -0.058928 -0.006281
C 3.555225 -0.753552 -0.341510
C 1.104712 -0.731440 -0.173801
N -0.226656 -0.329732 -0.101082
C -0.631572 1.056266 -0.004486
C -2.055824 1.201761 -0.525650
O -2.937812 0.345056 0.154400
C -2.567411 -1.000022 -0.014813
C -1.163867 -1.250561 0.515088
H 2.693554 2.044595 -0.340913
H 1.559356 1.755544 1.002643
H 3.278766 1.391578 1.190490
H 4.233453 -0.765782 0.527799
H 3.394090 -1.789732 -0.668909
H 4.089461 -0.226203 -1.150267
H 1.185691 -1.786631 -0.463514
H -0.600102 1.429233 1.039985
H 0.045309 1.671696 -0.612371
H -2.417080 2.227971 -0.374456
H -2.067603 0.976383 -1.609995
H -3.301335 -1.611871 0.526772
H -2.601705 -1.269633 -1.088672
H -0.857019 -2.282076 0.285607
H -1.166492 -1.139113 1.619131