28

N -0.977236 0.011169 -0.062700
C -1.782978 1.213309 -0.080775
C -3.208010 0.691415 -0.266499
C -3.159181 -0.675510 0.417055
C -1.776896 -1.200289 0.023655
C 0.401782 0.062922 -0.039024
C 1.092056 1.226414 0.004299
C 2.596586 1.304580 0.044758
C 3.232884 -0.034741 0.405208
C 2.586899 -1.152028 -0.406197
C 1.105272 -1.277313 -0.063761
H -1.669962 1.783036 0.863421
H -1.470301 1.884861 -0.898685
H -3.967102 1.365138 0.151731
H -3.420581 0.564852 -1.339200
H -3.208060 -0.548621 1.509562
H -3.972071 -1.348912 0.115113
H -1.824247 -1.738175 -0.943714
H -1.378012 -1.904989 0.768967
H 0.547533 2.171934 0.009071
H 2.990101 1.642978 -0.932542
H 2.909193 2.074345 0.768823
H 4.319242 -0.004498 0.234272
H 3.079558 -0.236539 1.479109
H 2.692940 -0.922977 -1.479909
H 3.091363 -2.113961 -0.231995
H 0.986874 -1.762421 0.921729
H 0.603703 -1.936787 -0.789160