12

N -1.406187 -1.128666 -0.206722
C -0.635558 0.104643 -0.403288
C -1.214065 1.240110 0.433561
C 0.890316 -0.049354 -0.048258
O 1.596660 0.932022 -0.336148
O 1.199446 -1.120352 0.514150
H -1.118024 -1.758118 -0.957965
H -0.921284 -1.559934 0.589367
H -0.688258 0.403111 -1.464994
H -1.175916 0.965770 1.501592
H -0.600715 2.139519 0.289332
H -2.265501 1.444563 0.173616