16

O -0.078963 2.913460 0.000179
C -0.346108 1.720905 0.000178
N -1.563838 1.143006 0.000258
S -1.505948 -0.470229 0.000146
O -2.013830 -1.056865 1.239656
O -2.014137 -1.056706 -1.239315
C 0.298290 -0.609077 -0.000083
C 1.137804 -1.713222 -0.000256
C 2.515971 -1.475247 -0.000395
C 3.017765 -0.167711 -0.000360
C 2.151116 0.928458 -0.000184
C 0.783164 0.685499 -0.000045
H 0.734065 -2.727391 -0.000281
H 3.210556 -2.318240 -0.000531
H 4.098609 -0.009516 -0.000467
H 2.506239 1.961034 -0.000147