17

N -1.252665 1.779366 -0.010416
C -1.162158 0.376954 -0.446851
C 0.140054 -0.282736 0.014569
C 1.412721 0.351526 -0.542240
C 2.758028 -0.118885 0.108550
O 2.712291 -0.411329 1.321353
O 3.753806 -0.109406 -0.647036
C -2.437017 -0.450335 -0.028499
O -3.348509 0.202219 0.536910
O -2.432749 -1.655378 -0.336308
H -2.228497 1.836208 0.305734
H -0.714429 1.840413 0.857018
H -1.163984 0.347808 -1.557030
H 0.203379 -0.244873 1.116950
H 0.082246 -1.348513 -0.253792
H 1.487189 0.198498 -1.632366
H 1.354268 1.446909 -0.396135