17

C 2.434502 -0.025417 0.110082
C 0.936099 -0.101677 -0.016390
N 0.358435 -1.239093 -0.066539
C -1.087704 -1.255398 -0.188827
C -1.767378 -0.020605 0.402185
C -1.134005 1.233067 -0.188937
N 0.303439 1.120449 -0.062990
H 2.831460 -1.042639 0.178201
H 2.871404 0.479774 -0.764635
H 2.719051 0.543479 1.008059
H -1.357725 -1.349523 -1.256960
H -1.468952 -2.165480 0.298665
H -2.849109 -0.031345 0.207722
H -1.622067 -0.015359 1.493978
H -1.438568 1.342671 -1.246220
H -1.476579 2.132799 0.343730
H 0.868880 1.956308 -0.064514