34

C 0.277574 -4.565454 0.000000
C 0.987588 -3.215601 0.000000
C 0.020893 -2.034002 0.000000
C 0.764199 -0.698718 0.000000
C 0.000000 0.618704 0.000000
C 0.793579 1.807960 0.000000
O 2.165644 1.492585 0.000000
C 3.025516 2.597734 0.000000
C 4.449359 2.076337 0.000000
O 0.491813 2.987853 0.000000
C -1.414128 0.800639 0.000000
O -2.127995 -0.408750 0.000000
C -3.521711 -0.275222 0.000000
C -4.119211 -1.669399 0.000000
O -2.070205 1.828107 0.000000
H -0.369161 -4.665603 0.885720
H -0.369161 -4.665603 -0.885720
H 0.983816 -5.410016 0.000000
H 1.650572 -3.145129 0.880058
H 1.650572 -3.145129 -0.880058
H -0.643855 -2.102685 -0.874806
H -0.643855 -2.102685 0.874806
H 1.450539 -0.712546 0.868590
H 1.450539 -0.712546 -0.868590
H 2.834119 3.237318 -0.879026
H 2.834119 3.237318 0.879026
H 4.627720 1.453057 -0.888245
H 5.173384 2.905042 0.000000
H 4.627720 1.453057 0.888245
H -3.856410 0.301896 0.879180
H -3.856410 0.301896 -0.879180
H -3.790723 -2.228692 -0.888343
H -3.790723 -2.228692 0.888343
H -5.218812 -1.626479 0.000000