18

C -1.754765 -1.065094 -0.000316
C -0.812389 -0.117578 -0.000026
C -1.166713 1.346237 0.000410
C 0.661316 -0.480212 -0.000153
C 1.370642 0.024747 -1.260562
C 1.370662 0.023926 1.260573
H -1.491279 -2.125771 -0.000643
H -2.817717 -0.811902 -0.000241
H -0.755033 1.855781 0.885347
H -0.754989 1.856314 -0.884200
H -2.254915 1.488871 0.000427
H 0.715158 -1.580984 -0.000515
H 2.408146 -0.339530 -1.290485
H 0.857875 -0.320896 -2.169673
H 1.407069 1.124734 -1.284956
H 0.857931 -0.322332 2.169468
H 2.408177 -0.340340 1.290224
H 1.407059 1.123898 1.285693