49

C 4.135855 -0.074209 -0.923088
C 2.805251 0.267837 -0.256631
C 2.889654 1.698845 0.299230
O 1.783300 0.181079 -1.210991
B 0.512998 -0.061225 -0.486117
C -0.304663 1.319041 -0.147937
C -1.016419 1.469291 1.052476
C -1.780216 2.606536 1.319037
C -1.849348 3.639269 0.382219
C -1.145786 3.518534 -0.817494
C -0.388527 2.372662 -1.070957
C -0.483663 -1.031095 -1.404465
C 0.217674 -2.325084 -1.813502
C -1.772875 -1.269835 -0.674928
C -2.952166 -0.595608 -1.027365
C -4.132992 -0.759106 -0.305359
C -4.171392 -1.612786 0.796374
C -3.007179 -2.287522 1.167996
C -1.828185 -2.116655 0.445984
O 0.949605 -0.734154 0.772147
C 2.348506 -0.762521 0.846393
C 2.841502 -2.182330 0.534661
C 2.787895 -0.393881 2.263916
H 4.953572 -0.131964 -0.186457
H 4.068185 -1.029050 -1.459933
H 4.382711 0.708856 -1.655928
H 2.986637 2.391566 -0.550300
H 1.973834 1.965610 0.843063
H 3.755078 1.830989 0.967968
H -0.961684 0.659546 1.786679
H -2.329087 2.689277 2.261284
H -2.446401 4.531804 0.586141
H -1.189231 4.324096 -1.556214
H 0.168899 2.286876 -2.009903
H -0.714952 -0.450952 -2.315669
H -0.403583 -2.957405 -2.471707
H 1.156351 -2.084566 -2.335094
H 0.480635 -2.922797 -0.927288
H -2.927402 0.090590 -1.877888
H -5.029235 -0.209311 -0.603013
H -5.094592 -1.742771 1.365264
H -3.014036 -2.944820 2.041221
H -0.908621 -2.604758 0.774162
H 2.618629 -2.442130 -0.508184
H 3.923129 -2.299630 0.709163
H 2.299651 -2.884889 1.186296
H 2.444950 -1.173271 2.961561
H 3.884937 -0.315261 2.342654
H 2.335846 0.556800 2.574101