20

C -3.300185 -0.531516 0.078894
C -1.953095 0.158343 -0.022610
O -1.838789 1.353387 -0.157075
N -0.883243 -0.705455 0.058984
C 0.472885 -0.373101 0.008341
C 1.476192 -1.263180 -0.039154
C 2.813792 -0.576390 -0.145530
C 2.479268 0.880617 0.232876
C 0.972699 1.052710 -0.037155
H -4.082766 0.222332 -0.049941
H -3.403750 -1.306061 -0.694495
H -3.411640 -1.011092 1.062092
H -1.092966 -1.693678 0.127235
H 1.343612 -2.346549 -0.062919
H 3.578926 -1.012267 0.514554
H 3.208991 -0.651854 -1.174479
H 2.664663 1.020532 1.308092
H 3.092663 1.616167 -0.303776
H 0.758127 1.488500 -1.026408
H 0.467815 1.700154 0.689789