44

C -0.902873 5.070722 1.537381
Si 0.162392 4.834476 0.000000
C -0.902873 5.070722 -1.537381
C 1.563536 6.093603 0.000000
C 0.902873 3.094858 0.000000
C -0.120221 1.956591 0.000000
C 0.510172 0.566193 0.000000
C -0.510172 -0.566193 0.000000
C 0.120221 -1.956591 0.000000
C -0.902873 -3.094858 0.000000
Si -0.162392 -4.834476 0.000000
C 0.902873 -5.070722 1.537381
C -1.563536 -6.093603 0.000000
C 0.902873 -5.070722 -1.537381
H -1.760048 4.380771 1.538386
H -0.321051 4.889629 2.454045
H -1.298979 6.096413 1.586608
H -1.298979 6.096413 -1.586608
H -0.321051 4.889629 -2.454045
H -1.760048 4.380771 -1.538386
H 2.200471 5.974012 0.889539
H 2.200471 5.974012 -0.889539
H 1.173437 7.122597 0.000000
H 1.564045 3.002352 -0.880445
H 1.564045 3.002352 0.880445
H -0.780974 2.047391 0.880240
H -0.780974 2.047391 -0.880240
H 1.168495 0.468542 -0.881251
H 1.168495 0.468542 0.881251
H -1.168495 -0.468542 0.881251
H -1.168495 -0.468542 -0.881251
H 0.780974 -2.047391 -0.880240
H 0.780974 -2.047391 0.880240
H -1.564045 -3.002352 0.880445
H -1.564045 -3.002352 -0.880445
H 0.321051 -4.889629 2.454045
H 1.298979 -6.096413 1.586608
H 1.760048 -4.380771 1.538386
H -2.200471 -5.974012 -0.889539
H -1.173437 -7.122597 0.000000
H -2.200471 -5.974012 0.889539
H 1.760048 -4.380771 -1.538386
H 1.298979 -6.096413 -1.586608
H 0.321051 -4.889629 -2.454045