59

H -0.000373 0.000076 -2.278460
C -0.000473 -0.000057 -1.174849
C -1.460703 0.016252 -0.742386
C -2.387605 -0.799199 -1.400404
C -3.719166 -0.865238 -1.011825
C -4.192098 -0.100610 0.078600
N -5.513912 -0.153956 0.472309
C -6.425098 -1.041624 -0.204016
C -5.945329 0.603016 1.619587
C -3.258144 0.719528 0.744154
C -1.927835 0.772253 0.333949
C 0.715427 -1.272804 -0.742671
C 0.296687 -2.053043 0.336328
C 1.008124 -3.178181 0.746993
C 2.183649 -3.578591 0.079331
N 2.891684 -4.695794 0.473709
C 2.453028 -5.447292 1.621841
C 4.112473 -5.044644 -0.207183
C 2.606573 -2.789402 -1.014095
C 1.882983 -1.669819 -1.403133
C 0.743792 1.256247 -0.742313
C 0.502682 2.466403 -1.401397
C 1.111135 3.652551 -1.012453
C 2.007868 3.680048 0.079522
N 2.622046 4.851424 0.473932
C 2.313555 6.083521 -0.206049
C 3.495851 4.845784 1.619229
C 2.249954 2.461244 0.745860
C 1.630672 1.282915 0.335169
H -2.052382 -1.413181 -2.240963
H -4.395050 -1.516572 -1.563307
H -6.112324 -2.098626 -0.128487
H -7.420421 -0.950014 0.245498
H -6.515663 -0.797662 -1.276521
H -5.790778 1.686504 1.477500
H -7.015987 0.435182 1.782731
H -5.408832 0.308805 2.539620
H -3.566566 1.331366 1.590101
H -1.236801 1.426421 0.869852
H -0.613991 -1.780285 0.873892
H 0.634413 -3.749310 1.595045
H 1.437084 -5.855023 1.481418
H 3.133812 -6.290564 1.784758
H 2.440884 -4.834965 2.541454
H 4.872400 -4.245646 -0.138019
H 4.532233 -5.951006 0.243834
H 3.941569 -5.248911 -1.278253
H 3.507001 -3.050584 -1.567471
H 2.245129 -1.074459 -2.245928
H -0.195195 2.483010 -2.243181
H 0.886485 4.563256 -1.565049
H 1.241754 6.342225 -0.135768
H 2.888998 6.899887 0.245095
H 2.574949 6.038253 -1.277404
H 4.356574 4.170119 1.475070
H 3.886036 5.856837 1.782439
H 2.974539 4.527635 2.539939
H 2.933031 2.422553 1.592606
H 1.850727 0.357423 0.871567