35

O 2.308808 -0.555561 1.886314
C 2.343163 -0.182005 0.715237
N 3.474463 -0.017901 0.020941
H 3.499907 0.259769 -0.961855
C 4.797133 -0.253768 0.546332
C 5.873629 -0.044914 -0.576923
O 5.422002 0.297704 -1.687790
O 7.041086 -0.246859 -0.213283
C 1.036213 0.197358 0.006370
H 1.088278 0.060667 -1.082365
N 0.011036 -0.685916 0.510040
C -0.885683 -1.358471 -0.231413
C -1.986386 -2.037730 0.582846
C -3.363343 -1.658129 0.043035
C -3.581920 -0.147751 -0.070565
H -2.927359 0.236030 -0.877699
N -3.284825 0.647165 1.117272
H -3.123855 0.064512 1.936261
H -2.418756 1.223577 0.915966
H -4.796942 1.330129 0.848242
C -5.036707 0.131462 -0.485279
O -5.563081 1.122517 0.214727
O -5.633988 -0.484395 -1.333478
O -0.878009 -1.449206 -1.446615
C 0.703872 1.672245 0.338037
S -0.908008 2.279593 -0.246167
H 5.022466 0.425883 1.385272
H 4.888945 -1.277843 0.943957
H -0.028532 -0.733873 1.520722
H -1.850159 -3.127322 0.495500
H -1.893647 -1.781706 1.649911
H -3.487724 -2.079065 -0.963588
H -4.146920 -2.104381 0.680926
H 0.801111 1.767357 1.436016
H 1.522210 2.275958 -0.091406