37

C 2.008913 -0.345997 1.572443
C 1.808551 -0.878847 0.362841
C 2.184082 -0.158280 -0.920716
C 2.053250 1.369664 -0.940275
C 0.591104 1.857137 -0.898877
C 0.114082 2.460680 0.429296
C -1.390903 2.282455 0.654107
C -1.760103 0.791068 0.793428
C -2.574968 0.207405 -0.364145
C -2.495055 -1.319329 -0.465736
C -1.068856 -1.813583 -0.774820
C -0.282079 -2.350706 0.426468
C 1.243707 -2.286844 0.247972
H 2.415268 0.657864 1.708414
H 1.778772 -0.913290 2.478773
H 3.223321 -0.444668 -1.163616
H 1.578429 -0.566031 -1.747185
H 2.631465 1.819690 -0.116424
H 2.536006 1.725513 -1.862647
H 0.415708 2.594644 -1.698082
H -0.054530 1.002358 -1.151107
H 0.637866 1.969901 1.263922
H 0.390778 3.526631 0.474024
H -1.686487 2.838781 1.556021
H -1.952019 2.737696 -0.180965
H -0.818176 0.227956 0.885813
H -2.304414 0.609590 1.734117
H -3.625596 0.530236 -0.277788
H -2.209992 0.631421 -1.316423
H -2.857325 -1.779446 0.470457
H -3.185435 -1.653993 -1.254446
H -1.095983 -2.599382 -1.546141
H -0.510975 -0.980680 -1.231917
H -0.545379 -1.790669 1.338154
H -0.584109 -3.393734 0.615845
H 1.518156 -2.722027 -0.727762
H 1.714303 -2.917307 1.017049