51

C 2.881801 1.229883 -1.556160
C 2.320821 -0.101283 -1.973556
C 3.111297 -1.145837 -2.249941
C 0.823349 -0.197322 -2.016363
Si -0.041271 -0.028717 -0.291950
Si -0.457411 2.203853 0.336406
C -0.886304 3.226171 -1.195967
C -1.932787 2.203654 1.524731
C 0.975734 3.044001 1.245541
Si -2.138370 -1.070994 -0.562826
C -1.912722 -2.674776 -1.542533
C -2.937599 -1.495964 1.097232
C -3.299739 0.049377 -1.554017
Si 1.162596 -1.128017 1.405924
C 2.947764 -0.525102 1.558388
C 0.303036 -0.772536 3.055880
C 1.162451 -2.989611 1.077515
H 2.480678 2.038463 -2.189018
H 2.586858 1.457695 -0.518350
H 3.977982 1.249422 -1.612799
H 4.199062 -1.063768 -2.189387
H 2.693981 -2.110502 -2.549059
H 0.405118 0.591035 -2.666991
H 0.520942 -1.166163 -2.442171
H -1.729811 2.782098 -1.745719
H -1.164238 4.253798 -0.914049
H -0.027803 3.285103 -1.882153
H -1.714992 1.597506 2.417716
H -2.155608 3.229443 1.858084
H -2.839124 1.796327 1.052594
H 1.850549 3.197663 0.597684
H 0.648959 4.032129 1.606563
H 1.294130 2.456888 2.120445
H -1.168245 -3.335931 -1.073914
H -2.866656 -3.222333 -1.600430
H -1.582855 -2.468043 -2.571868
H -3.026611 -0.614114 1.748727
H -3.947598 -1.905316 0.937121
H -2.349196 -2.257527 1.631876
H -2.848845 0.308044 -2.524714
H -4.255355 -0.461750 -1.750467
H -3.520916 0.987424 -1.023210
H 2.987602 0.553451 1.773926
H 3.446259 -1.053552 2.386689
H 3.513610 -0.717793 0.635463
H -0.762292 -1.045452 3.038805
H 0.788012 -1.338945 3.866749
H 0.375950 0.297106 3.308273
H 1.619792 -3.206531 0.099898
H 1.733879 -3.526698 1.850594
H 0.136564 -3.388842 1.072843