30

C -0.751463 -2.734218 -0.870371
C -1.122446 -1.356354 -1.427118
Si -0.674414 0.060268 -0.263500
C 1.191545 0.104583 -0.023343
C 2.175852 0.937809 -0.487138
C 3.418140 0.456093 0.037626
C 3.098112 -0.636610 0.783838
O 1.771927 -0.856000 0.754808
C -1.176519 1.719201 -1.009095
C -1.028070 2.905392 -0.051525
C -1.469883 -0.212611 1.424210
C -2.992722 -0.358692 1.358461
H 0.316071 -2.781924 -0.608175
H -1.319445 -2.960212 0.045296
H -0.956697 -3.538476 -1.591682
H -0.608199 -1.177903 -2.386168
H -2.202672 -1.305959 -1.647084
H 2.026347 1.800874 -1.132132
H 4.411504 0.867763 -0.115537
H 3.689743 -1.331078 1.373158
H -0.573460 1.877340 -1.919714
H -2.219501 1.636875 -1.358664
H -1.692933 2.798252 0.818769
H 0.000047 2.983141 0.333731
H -1.275685 3.859876 -0.538359
H -1.010732 -1.108001 1.874881
H -1.186288 0.627650 2.079007
H -3.464384 0.533083 0.916319
H -3.285766 -1.220936 0.739592
H -3.436849 -0.503677 2.354026