19

N 2.594082 -0.296673 -0.069987
C 1.519926 0.562920 0.384510
C 0.290536 0.332648 -0.485096
H 0.598431 0.503072 -1.528110
N -0.168723 -1.063583 -0.346526
C -1.399625 -1.024339 0.441087
C -2.091751 0.280721 0.036977
C -0.902370 1.240490 -0.082822
H 3.383355 -0.262194 0.570565
H 2.237843 -1.252681 -0.052935
H 1.216991 0.400521 1.441927
H 1.822603 1.620308 0.299646
H -0.377256 -1.443918 -1.265547
H -2.002190 -1.926849 0.268918
H -1.149692 -0.999040 1.515595
H -2.580149 0.148342 -0.941905
H -2.855197 0.619476 0.751236
H -0.698786 1.710291 0.893176
H -1.073764 2.049829 -0.804918