18

C 2.698085 -1.597466 0.001952
N 1.913758 -0.395293 0.003330
C 2.334022 0.922091 0.008338
N 1.348718 1.772299 0.003947
C 0.203385 1.000442 -0.006201
C -1.220614 1.350453 -0.002936
O -1.660548 2.493495 0.011328
N -2.050963 0.234771 -0.007766
C -1.564555 -0.991818 -0.021551
N -0.286020 -1.409211 -0.011571
C 0.535620 -0.352191 -0.006056
N -2.513128 -2.023533 -0.072041
H 3.331277 -1.672546 0.900609
H 1.989370 -2.436287 -0.008165
H 3.343157 -1.662232 -0.888899
H 3.397254 1.169668 0.014705
H -3.407606 -1.711056 0.286518
H -2.171274 -2.877811 0.352040