24

O 1.910748 -1.425651 0.000103
C 1.959450 -0.201233 0.000039
C 0.914890 0.758723 -0.000032
H 1.222707 1.804354 -0.000093
C -0.462455 0.462140 -0.000027
C -1.009341 -0.864756 0.000053
C -2.370008 -1.084759 0.000057
C -3.297098 -0.018094 -0.000019
C -4.704116 -0.258399 -0.000014
N -5.849030 -0.451582 -0.000010
C -2.782200 1.297062 -0.000101
C -1.424381 1.525128 -0.000105
O 3.209453 0.409800 0.000015
C 4.303769 -0.468805 0.000057
C 5.566618 0.369942 -0.000033
H -0.313293 -1.701287 0.000112
H -2.748701 -2.109787 0.000121
H -3.477320 2.139890 -0.000161
H -1.053698 2.553257 -0.000169
H 4.265152 -1.132936 0.880379
H 4.265110 -1.133069 -0.880160
H 6.462815 -0.267766 -0.000006
H 5.594010 1.016704 -0.888688
H 5.594051 1.016834 0.888527