16

C 1.718221 -1.274287 0.000000
C 0.243115 -1.755827 0.000000
N -0.575780 -0.581720 0.000000
C -2.014167 -0.424150 0.000000
C -2.126740 1.138565 0.000000
N -0.760719 1.676702 0.000000
C 0.000000 0.662654 0.000000
S 1.757832 0.564949 0.000000
H 2.253783 -1.630133 0.888001
H 2.253783 -1.630133 -0.888001
H 0.046708 -2.381866 -0.888243
H 0.046708 -2.381866 0.888243
H -2.474261 -0.883584 -0.891537
H -2.474261 -0.883584 0.891537
H -2.672427 1.502683 -0.883519
H -2.672427 1.502683 0.883519