25

C -2.212379 -0.302612 1.070944
C -1.385124 -0.347173 0.022185
C -1.174499 0.874357 -0.851043
C -0.209801 1.918157 -0.265943
C 1.250544 1.498249 -0.076168
C 1.480373 0.363091 0.940321
C 1.760850 -1.011772 0.320906
C 0.800758 -1.466616 -0.776812
C -0.663127 -1.620345 -0.359080
H -2.775707 0.603287 1.311673
H -2.353061 -1.168204 1.722715
H -0.825815 0.569127 -1.850877
H -2.147394 1.366946 -1.000338
H -0.236241 2.806898 -0.916845
H -0.610353 2.238930 0.711087
H 1.690517 1.226435 -1.051825
H 1.801615 2.392483 0.252493
H 2.340619 0.615893 1.578656
H 0.614041 0.301979 1.615955
H 2.778064 -1.000686 -0.105876
H 1.776756 -1.767865 1.123855
H 0.866399 -0.774055 -1.632069
H 1.149830 -2.437149 -1.162599
H -0.745680 -2.346374 0.465742
H -1.209158 -2.059670 -1.213610