25

N 0.000641 3.233180 0.000102
N -0.000002 2.101513 0.000066
C -0.000026 0.793824 0.000026
C 1.319696 0.132853 0.025675
C 1.474272 -1.133949 0.611849
C 2.724328 -1.744888 0.652141
C 3.844634 -1.104028 0.123532
C 3.702231 0.158933 -0.450293
C 2.452867 0.769006 -0.505342
C -1.319777 0.132926 -0.025669
C -2.452974 0.769202 0.505150
C -3.702356 0.159171 0.450072
C -3.844761 -1.103862 -0.123597
C -2.724432 -1.744838 -0.652015
C -1.474352 -1.133950 -0.611686
H 0.609326 -1.632277 1.052045
H 2.825336 -2.728625 1.113694
H 4.822751 -1.584949 0.161586
H 4.569821 0.671517 -0.868718
H 2.351319 1.751363 -0.972291
H -2.351435 1.751621 0.971968
H -4.569964 0.671853 0.868340
H -4.822895 -1.584744 -0.161681
H -2.825438 -2.728631 -1.113448
H -0.609387 -1.632378 -1.051731