30

O 0.695856 2.360838 -1.025031
C 1.093624 1.245109 -0.736875
C 0.485056 0.001028 -1.040103
C -0.859545 0.001783 -1.710739
C -1.976416 0.000715 -0.693230
C -2.473853 1.204839 -0.176699
C -3.458227 1.204093 0.810612
C -3.959734 -0.001343 1.304246
C -3.457247 -1.205751 0.809079
C -2.472873 -1.204481 -0.178222
C 1.093158 -1.243725 -0.738765
O 2.301828 -1.167560 -0.046573
C 2.524386 -0.000692 0.707328
C 1.640636 -0.001531 1.958105
C 3.999905 -0.001222 1.062635
O 2.302207 1.167447 -0.044726
O 0.694910 -2.358877 -1.028525
H -0.943373 0.899026 -2.341976
H -0.943468 -0.894067 -2.343949
H -2.048715 2.141007 -0.547459
H -3.834561 2.152305 1.202345
H -4.731641 -0.002171 2.077021
H -3.832816 -2.154756 1.199623
H -2.046885 -2.139803 -0.550143
H 1.848920 -0.900313 2.555050
H 1.849207 0.896241 2.556465
H 0.580091 -0.001146 1.671789
H 4.579494 -0.000560 0.130564
H 4.246216 0.897794 1.643368
H 4.245908 -0.901267 1.641900