23

C 2.497267 0.269909 -0.716302
C 1.387885 -0.480420 0.020890
C 1.355902 -0.070407 1.493071
C 0.030934 -0.285767 -0.686333
H 0.206854 -0.480897 -1.759920
N -0.545070 1.055844 -0.538371
C -1.692058 1.001635 0.354062
C -2.313334 -0.340064 -0.019952
C -1.077229 -1.232842 -0.171676
H 2.558224 -0.041254 -1.769275
H 2.318024 1.357471 -0.699730
H 3.477171 0.094065 -0.248853
H 1.614328 -1.560192 -0.035889
H 1.142394 1.005889 1.592552
H 0.591745 -0.616152 2.064657
H 2.328076 -0.258751 1.971281
H 0.136347 1.768755 -0.298534
H -1.424063 1.000653 1.431657
H -2.371013 1.850028 0.179204
H -3.030335 -0.711630 0.724494
H -2.833706 -0.240524 -0.983931
H -1.239266 -2.081399 -0.849444
H -0.795488 -1.649236 0.807768