22

C 3.087492 0.834646 0.255369
C 2.612087 -0.534312 -0.154353
C 1.373074 -1.042492 -0.281397
N 0.115616 -0.461212 -0.183061
C -0.053162 0.953901 0.077123
C -1.448451 1.386968 -0.353954
O -2.440805 0.610617 0.266938
C -2.301727 -0.746799 -0.068424
C -0.947618 -1.279169 0.373947
H 3.286049 1.485875 -0.612873
H 2.386317 1.358122 0.914941
H 4.037331 0.745521 0.801360
H 3.404897 -1.244409 -0.402337
H 1.301736 -2.102275 -0.550304
H 0.080136 1.191484 1.152644
H 0.694037 1.516614 -0.497511
H -1.628667 2.433315 -0.073067
H -1.529422 1.296022 -1.454897
H -3.113548 -1.292335 0.431153
H -2.403850 -0.879693 -1.163318
H -0.821434 -2.315777 0.027683
H -0.906629 -1.285374 1.482585