42

C -2.889165 0.066376 2.824634
C -1.686158 0.650318 2.822458
C -0.384019 -0.049653 2.622084
Sn 0.077323 -0.022306 0.488340
C -0.312315 1.925310 -0.345638
C 0.709808 2.638823 -0.987355
C 0.466965 3.897306 -1.539905
C -0.806020 4.460013 -1.461075
C -1.835384 3.761459 -0.829984
C -1.589591 2.504259 -0.276861
C 2.134212 -0.545559 0.108307
C 2.455309 -1.617395 -0.736364
C 3.785751 -1.955430 -0.989742
C 4.815963 -1.222338 -0.402723
C 4.514145 -0.152183 0.439444
C 3.183048 0.180323 0.692311
C -1.227172 -1.458642 -0.445419
C -1.259946 -2.790287 -0.005239
C -2.113131 -3.721307 -0.598002
C -2.951511 -3.330666 -1.642142
C -2.931594 -2.011198 -2.091502
C -2.075251 -1.083354 -1.496234
H -2.994828 -1.016998 2.714198
H -3.803328 0.651632 2.936330
H -1.636248 1.741738 2.919289
H 0.435108 0.424192 3.180571
H -0.441483 -1.107931 2.917951
H 1.712887 2.208263 -1.063920
H 1.274416 4.438296 -2.036860
H -0.996715 5.443372 -1.894586
H -2.834370 4.197035 -0.767683
H -2.409177 1.971026 0.214312
H 1.657770 -2.200345 -1.206760
H 4.018572 -2.793545 -1.649145
H 5.856661 -1.484459 -0.601283
H 5.317683 0.424071 0.901784
H 2.968323 1.023669 1.356365
H -0.610292 -3.118326 0.812504
H -2.125137 -4.753720 -0.243737
H -3.621776 -4.056836 -2.105358
H -3.585698 -1.701799 -2.908667
H -2.072171 -0.051073 -1.858635