27

O -0.246522 -2.296880 -0.710162
C -0.689989 -1.192830 -0.471308
C 0.026500 0.032776 -0.215596
C -0.695675 1.279807 -0.220878
O -2.084254 1.186703 -0.231742
C -2.666508 -0.017853 0.182116
C -2.554274 -0.180243 1.700225
C -4.114758 0.028097 -0.269641
O -2.078923 -1.105905 -0.476169
O -0.264279 2.415034 -0.230040
C 1.493865 0.012161 -0.078605
C 2.288059 1.178371 -0.198194
C 3.671185 1.144032 -0.036275
C 4.338081 -0.045269 0.252451
C 3.576043 -1.207092 0.376357
C 2.194256 -1.184179 0.214914
H -3.043676 0.667434 2.199463
H -3.038626 -1.117508 2.007118
H -1.498320 -0.208853 1.998869
H -4.132771 0.147285 -1.360391
H -4.622333 -0.907005 0.002106
H -4.625099 0.880800 0.197809
H 1.794980 2.120947 -0.416180
H 4.235977 2.074429 -0.142809
H 5.423018 -0.067131 0.376959
H 4.064870 -2.158518 0.603657
H 1.633090 -2.110168 0.304911