23

O -2.365215 0.119116 -1.821556
S -2.646147 -0.608687 -0.579872
C -1.320704 -1.345335 0.105172
H -1.603824 -2.170037 0.755673
C 0.026851 -0.882564 0.049004
C 1.022777 -1.578834 0.790859
C 2.349919 -1.190465 0.787115
C 2.764312 -0.081084 0.040627
C 4.200340 0.300066 -0.006817
F 4.909155 -0.392814 -0.922096
F 4.379160 1.594216 -0.314532
F 4.829483 0.085480 1.162632
C 1.805886 0.622201 -0.699387
C 0.475496 0.240908 -0.701858
C -3.145986 0.807435 0.529525
F -2.155971 1.694200 0.643187
F -4.213547 1.446680 0.054123
F -3.443836 0.376458 1.754951
O -3.826563 -1.468112 -0.483948
H 0.718157 -2.442721 1.385666
H 3.081208 -1.746612 1.378235
H 2.113418 1.494094 -1.280633
H -0.249724 0.804266 -1.286792