14

N 1.780781 -1.839264 -0.000790
C 1.177628 -0.610753 -0.000268
N 1.929327 0.487477 0.000023
C 1.282578 1.675672 0.000256
N -0.008926 1.920893 0.000258
C -0.777932 0.799917 0.000095
N -2.126848 0.691756 -0.000004
C -2.304280 -0.643575 0.000631
N -1.222162 -1.434067 -0.000409
C -0.224128 -0.506754 -0.000206
H 2.785844 -1.896681 0.001455
H 1.192535 -2.657299 0.000998
H 1.945443 2.552748 0.000387
H -3.312220 -1.073376 0.000562