32

N -1.625285 2.978112 -0.871416
C -1.892530 1.640908 -0.554678
N -0.796948 0.858355 -0.462045
C -1.143279 -0.384144 -0.089111
N -0.294471 -1.457335 0.119673
C -1.113578 -2.511399 0.506616
N -2.370221 -2.199258 0.534538
C -2.421525 -0.867149 0.167605
C -3.551348 0.053739 0.011897
O -4.724121 -0.244426 0.182052
N -3.157326 1.334807 -0.365902
C 1.134968 -1.488149 0.085591
H 1.431071 -2.541250 0.208203
O 1.703262 -0.723220 1.132132
C 2.485650 0.357082 0.649910
H 3.557673 0.129534 0.800468
C 2.101419 1.592464 1.441675
O 2.270795 1.371785 2.818017
C 2.201943 0.463706 -0.846715
H 1.356173 1.142072 -1.018496
O 3.376325 0.860599 -1.535939
C 1.780165 -0.969497 -1.208626
H 1.064006 -1.009637 -2.046879
O 2.930445 -1.736416 -1.464035
H -0.796674 3.094962 -1.441932
H -2.449686 3.439463 -1.237160
H -0.679341 -3.484060 0.743780
H 2.754338 2.428896 1.146759
H 1.056879 1.847515 1.182911
H 1.753446 0.578524 3.010413
H 3.107777 1.321208 -2.336841
H 3.609121 -1.101939 -1.737970