15

C -2.736129 0.315410 0.000102
O -1.736765 -0.673498 0.000044
C -0.452255 -0.282364 -0.000006
C 0.523375 -1.288055 0.000098
C 1.859647 -0.915328 0.000073
N 2.283280 0.351614 -0.000055
C 1.350741 1.294917 -0.000172
C -0.025340 1.048801 -0.000134
H -2.671502 0.951435 0.897798
H -2.671709 0.951324 -0.897688
H -3.696633 -0.210740 0.000247
H 0.214938 -2.333228 0.000203
H 2.634947 -1.687751 0.000153
H 1.704169 2.331278 -0.000241
H -0.723287 1.884082 -0.000212