23

H 0.542537 -0.615869 -1.899391
B 0.317142 -0.411006 -0.717570
O -0.050384 1.022587 -0.558085
C -0.739558 1.512840 0.438078
C -1.218242 2.921273 0.136154
O -1.020194 0.947968 1.472950
O -0.728922 -1.312806 -0.169127
C -2.006709 -1.115261 -0.343052
C -2.833761 -1.960375 0.607334
O -2.512802 -0.334996 -1.120348
O 1.495673 -0.729190 0.140598
C 2.692320 -0.278323 -0.127229
C 3.710393 -0.784366 0.885435
O 3.003980 0.448906 -1.041310
H -2.010053 2.836410 -0.622401
H -1.617576 3.388962 1.043126
H -0.402872 3.516597 -0.294275
H -2.446640 -2.986601 0.648528
H -2.715493 -1.513277 1.605369
H -3.888760 -1.944598 0.311265
H 3.697674 -1.882929 0.898968
H 4.709460 -0.414436 0.629750
H 3.420552 -0.443717 1.889152