42

C -2.622866 -0.757227 3.009060
C -1.728818 0.187770 2.710911
C -0.286067 -0.057118 2.394084
Si 0.051477 0.009419 0.524033
C -0.636324 1.614449 -0.184556
C -1.308852 1.659295 -1.414616
C -1.769094 2.868471 -1.938919
C -1.564523 4.055523 -1.238316
C -0.895200 4.032411 -0.014114
C -0.435834 2.822842 0.503008
C 1.912428 -0.049237 0.233455
C 2.480689 0.597916 -0.874616
C 3.849516 0.519518 -1.129045
C 4.677254 -0.207596 -0.274117
C 4.132558 -0.854861 0.834444
C 2.762591 -0.773913 1.083229
C -0.755863 -1.467276 -0.319461
C 0.018573 -2.518238 -0.832942
C -0.580184 -3.629290 -1.428085
C -1.968531 -3.705608 -1.522301
C -2.756237 -2.668877 -1.020930
C -2.154679 -1.561259 -0.425519
H -2.335598 -1.810781 3.073237
H -3.669782 -0.509574 3.193273
H -2.066631 1.228424 2.640215
H 0.362318 0.687609 2.885035
H 0.024331 -1.052134 2.751706
H -1.480242 0.734570 -1.972191
H -2.292291 2.882259 -2.896579
H -1.927045 5.001199 -1.645240
H -0.730239 4.959982 0.536714
H 0.093502 2.824127 1.460877
H 1.843030 1.179007 -1.546934
H 4.273355 1.029575 -1.995804
H 5.749087 -0.268140 -0.470511
H 4.776433 -1.424007 1.507214
H 2.352987 -1.287274 1.957810
H 1.108972 -2.466741 -0.771626
H 0.040849 -4.435318 -1.822572
H -2.438853 -4.572226 -1.990321
H -3.843761 -2.723163 -1.095347
H -2.784326 -0.755430 -0.039323