32

C -4.399570 -0.821976 -0.914065
C -3.788978 0.256814 -0.022765
C -3.903679 -0.132023 1.449863
C -2.332369 0.516720 -0.440425
H -2.349755 0.745710 -1.524839
C -1.691849 1.709955 0.272737
C -0.254445 1.904542 -0.197161
N 0.437790 0.626686 -0.156026
C -0.291295 -0.556975 -0.146968
N -1.542449 -0.694684 -0.259689
S 0.822394 -1.938949 0.044125
C 2.212389 -0.861711 0.048949
C 3.555437 -1.196703 0.149405
C 4.510701 -0.176107 0.127153
C 4.115986 1.154877 0.002813
C 2.765761 1.499016 -0.099724
C 1.812520 0.482495 -0.070613
H -5.450318 -1.006455 -0.647735
H -4.361264 -0.532599 -1.975186
H -3.836279 -1.758689 -0.798376
H -4.336968 1.201736 -0.186700
H -3.284760 -1.019970 1.647696
H -3.577439 0.673601 2.123486
H -4.945508 -0.373928 1.705046
H -2.266690 2.628226 0.086640
H -1.691693 1.526405 1.357976
H -0.223824 2.316240 -1.220503
H 0.275973 2.607325 0.462901
H 3.856851 -2.240818 0.243118
H 5.568934 -0.426470 0.204415
H 4.868485 1.944104 -0.020443
H 2.464915 2.541205 -0.208687