29

C 2.912000 0.000000 0.327505
C 1.613486 -0.000001 1.136710
Ge 0.000000 0.000000 0.000000
C 0.000001 1.613486 -1.136710
C 0.000000 2.912000 -0.327505
C -0.000001 -1.613486 -1.136710
C 0.000000 -2.912000 -0.327505
C -1.613486 0.000001 1.136710
C -2.912000 0.000000 0.327505
H 3.803701 -0.000001 0.971979
H 2.978263 -0.885825 -0.323415
H 2.978263 0.885828 -0.323412
H 1.572402 -0.879152 1.799991
H 1.572402 0.879147 1.799994
H 0.879152 1.572402 -1.799991
H -0.879147 1.572402 -1.799994
H 0.000001 3.803701 -0.971979
H -0.885828 2.978263 0.323412
H 0.885825 2.978263 0.323415
H -0.879152 -1.572402 -1.799991
H 0.879147 -1.572402 -1.799994
H 0.885828 -2.978263 0.323412
H -0.885825 -2.978263 0.323415
H -0.000001 -3.803701 -0.971979
H -1.572402 -0.879147 1.799994
H -1.572402 0.879152 1.799991
H -2.978263 -0.885828 -0.323412
H -3.803701 0.000001 0.971979
H -2.978263 0.885825 -0.323415