23

C 3.615744 0.533135 0.102532
C 2.270714 -0.142603 -0.095284
O 2.174250 -1.309781 -0.397092
N 1.197577 0.683716 0.138391
C -0.175261 0.367045 0.067967
C -1.073541 1.362926 -0.009718
C -2.560434 1.146805 -0.076716
C -2.906594 -0.306139 -0.392651
C -2.058563 -1.243483 0.461532
C -0.573798 -1.087541 0.140328
H 4.376647 -0.059503 -0.415323
H 3.624817 1.564483 -0.275461
H 3.856710 0.555129 1.175483
H 1.405553 1.663742 0.284504
H -0.711792 2.396727 -0.027703
H -3.024395 1.441936 0.882189
H -2.994304 1.818496 -0.834448
H -3.979189 -0.486762 -0.230172
H -2.702546 -0.507321 -1.457790
H -2.230299 -1.011433 1.526320
H -2.356957 -2.290840 0.310981
H -0.318794 -1.580105 -0.810484
H 0.047913 -1.593185 0.891975