24

C 1.740754 0.891160 1.660340
Si 1.662432 0.017756 0.008599
O 0.179457 -0.813412 -0.094502
C -1.038638 -0.298462 -0.055290
C -1.488253 0.966684 0.040873
C -2.992927 0.927136 -0.067715
C -3.247012 -0.580405 0.125271
O -2.006628 -1.238300 -0.140011
C 1.798102 1.204716 -1.431072
C 2.933727 -1.339463 -0.108383
H 1.629373 0.163433 2.477733
H 2.711302 1.395692 1.782552
H 0.947228 1.643699 1.766689
H -0.873835 1.861401 0.079779
H -3.513889 1.516356 0.700807
H -3.347535 1.285284 -1.049821
H -3.530274 -0.800171 1.167513
H -4.007632 -0.998454 -0.545236
H 2.790002 1.681953 -1.436926
H 1.674771 0.665018 -2.381568
H 1.038534 1.997631 -1.390014
H 2.794693 -2.070200 0.701229
H 2.842808 -1.871870 -1.066214
H 3.953269 -0.932859 -0.034942