48

C -0.498123 5.005434 1.078777
C -0.338669 3.587103 1.613200
C -0.200905 2.543872 0.506511
C -0.043215 1.112359 1.026144
Si 0.074936 -0.177578 -0.343404
C 0.150259 -1.879329 0.455473
C 0.993486 -2.947521 0.294703
C 0.544741 -3.976438 1.183810
C -0.540409 -3.457696 1.821857
O -0.784977 -2.205967 1.394865
C -1.448539 -0.078143 -1.451687
C -2.770145 -0.154054 -0.681365
C -4.004314 -0.154920 -1.580624
C -5.309644 -0.216711 -0.796300
C 1.656918 0.021417 -1.349966
C 2.927212 0.168266 -0.507326
C 4.209063 0.211829 -1.336230
C 5.462471 0.377764 -0.485881
H 0.371055 5.296718 0.469624
H -1.391334 5.087182 0.440876
H -0.598299 5.737918 1.891787
H 0.544581 3.530220 2.271271
H -1.204344 3.322853 2.243301
H -1.085746 2.605933 -0.152769
H 0.663072 2.808955 -0.130013
H 0.852899 1.033470 1.665304
H -0.897038 0.845065 1.672964
H 1.842767 -2.989150 -0.384021
H 0.971450 -4.964601 1.329426
H -1.215110 -3.850148 2.577111
H -1.406058 0.855813 -2.039920
H -1.390734 -0.901982 -2.184214
H -2.779847 -1.058493 -0.048269
H -2.838621 0.698367 0.018249
H -3.988126 0.748667 -2.213209
H -3.941727 -1.011410 -2.272600
H -6.184927 -0.220687 -1.460846
H -5.352041 -1.125794 -0.177498
H -5.404006 0.647040 -0.120721
H 1.745084 -0.850800 -2.022512
H 1.543304 0.895964 -2.014252
H 2.861781 1.088529 0.099898
H 2.994498 -0.661979 0.218197
H 4.279948 -0.713601 -1.932550
H 4.136593 1.036690 -2.064909
H 5.425871 1.314263 0.091021
H 5.562408 -0.449067 0.233528
H 6.372230 0.398506 -1.102095