14

C -2.400473 -0.897605 0.126177
Si -0.830805 0.015034 -0.365055
H -0.660323 -0.020038 -1.843733
C -0.833558 1.783296 0.256255
C 0.660706 -0.883296 0.394689
Cl 2.179467 -0.033824 -0.064286
H -3.283870 -0.413304 -0.315358
H -2.382076 -1.941672 -0.218698
H -2.527898 -0.898840 1.219053
H -1.619250 2.379012 -0.230186
H -1.006128 1.810018 1.342697
H 0.138627 2.253521 0.051023
H 0.613905 -0.898348 1.492462
H 0.747287 -1.920192 0.043644