19

C -2.226227 0.824798 -0.247068
C -1.256364 -0.089292 -0.161243
C -1.330104 -1.264537 0.773326
C 0.000019 -0.000104 -1.000735
C 1.256373 0.089267 -0.161216
C 1.329976 1.264574 0.773286
C 2.226344 -0.824716 -0.246973
H -2.145824 1.672164 -0.932086
H -3.132419 0.751517 0.358846
H -1.225900 -2.208883 0.215301
H -0.499212 -1.237418 1.496297
H -2.278327 -1.284903 1.325571
H 0.065785 -0.887210 -1.652025
H -0.065714 0.886873 -1.652208
H 0.499250 1.237233 1.496440
H 2.278310 1.285225 1.325331
H 1.225374 2.208876 0.215263
H 3.132533 -0.751265 0.358924
H 2.146046 -1.672152 -0.931917