26

C 1.135422 3.330699 0.326102
C 0.158140 2.564603 -0.164222
N 0.072047 1.172759 -0.084923
C -1.140482 0.484358 -0.050563
C -0.888360 -0.902242 0.026686
C -1.957002 -1.801863 0.074492
C -3.255188 -1.305343 0.046867
C -3.490157 0.077335 -0.018147
C -2.442547 0.991673 -0.059719
C 0.554094 -1.059351 0.034625
C 1.110686 0.240045 -0.039531
C 2.494967 0.426505 -0.117585
C 3.305172 -0.704401 -0.088808
C 2.765335 -1.995550 0.013687
C 1.389080 -2.179246 0.068541
H 1.965275 2.925229 0.903434
H 1.097813 4.407165 0.165022
H -0.686502 3.016350 -0.691995
H -1.772675 -2.875882 0.133338
H -4.100802 -1.992845 0.081990
H -4.516880 0.446239 -0.027958
H -2.640091 2.063196 -0.086070
H 2.933309 1.417175 -0.217781
H 4.387303 -0.579018 -0.149524
H 3.431593 -2.858322 0.039933
H 0.962366 -3.181930 0.129522