49

O 3.441747 1.840030 0.856203
C 3.534053 0.760633 0.321154
N 2.445126 0.103959 -0.244114
C 2.370832 -1.346564 -0.349069
C 1.242671 -1.866720 0.532150
N 0.000009 -1.268001 0.115475
C -1.242648 -1.866728 0.532148
C -2.370811 -1.346581 -0.349073
N -2.445119 0.103942 -0.244120
C -3.534050 0.760612 0.321149
O -3.441733 1.839979 0.856256
C -4.875803 0.089228 0.193261
C -5.777747 0.230205 1.251134
C -7.060440 -0.302588 1.150666
C -7.457275 -0.951101 -0.019267
C -6.570827 -1.064076 -1.090349
C -5.280971 -0.548495 -0.983883
C -1.206297 0.781541 -0.407655
C -1.140147 2.118668 -0.804216
N -0.000003 2.769530 -0.996604
C 1.140144 2.118676 -0.804212
C 1.206301 0.781549 -0.407653
C 0.000004 0.073626 -0.215030
C 4.875800 0.089239 0.193269
C 5.777789 0.230299 1.251093
C 7.060474 -0.302512 1.150615
C 7.457252 -0.951131 -0.019279
C 6.570755 -1.064197 -1.090310
C 5.280907 -0.548598 -0.983833
H 2.183743 -1.643387 -1.394330
H 3.317291 -1.788692 -0.024879
H 1.160388 -2.959062 0.423358
H 1.476811 -1.648881 1.592646
H -1.160357 -2.959070 0.423358
H -1.476791 -1.648890 1.592645
H -2.183720 -1.643403 -1.394332
H -3.317265 -1.788718 -0.024881
H -5.458513 0.772360 2.142650
H -7.758594 -0.202346 1.982816
H -8.465414 -1.360385 -0.101762
H -6.887377 -1.550237 -2.014314
H -4.588494 -0.623221 -1.825206
H -2.066158 2.675945 -0.956461
H 2.066152 2.675959 -0.956453
H 5.458597 0.772533 2.142575
H 7.758665 -0.202203 1.982726
H 8.465384 -1.360431 -0.101781
H 6.887260 -1.550447 -2.014245
H 4.588388 -0.623403 -1.825114