50

C 2.908410 1.367841 0.539257
Si 2.132601 -0.156164 1.312420
O 0.489482 -0.366415 0.987145
C -0.345446 -0.097594 -0.102532
C -1.765009 -0.546528 0.267200
C -2.003743 -1.270184 1.436389
C -3.292645 -1.709910 1.742753
C -4.354341 -1.433742 0.884625
C -4.122329 -0.706589 -0.283243
C -2.837794 -0.263453 -0.586566
C -0.366520 1.414492 -0.370526
C -0.429340 2.266853 0.739339
C -0.472346 3.647249 0.579054
C -0.457311 4.205836 -0.701099
C -0.410036 3.369048 -1.811491
C -0.369772 1.981602 -1.647069
C 0.101600 -0.914526 -1.334239
H -0.616444 -0.713379 -2.156396
N 1.471543 -0.616950 -1.716484
C 1.894120 -1.692032 -2.603904
C 1.302744 -2.951507 -1.948006
C 0.137084 -2.430367 -1.078733
C 3.120873 -1.699826 0.910055
C 2.124199 0.062829 3.179074
H 2.377608 2.287002 0.826368
H 3.946127 1.446046 0.902009
H 2.934039 1.306332 -0.555956
H -1.167977 -1.479147 2.103235
H -3.466325 -2.271650 2.662239
H -5.361247 -1.777437 1.126521
H -4.948014 -0.475832 -0.958306
H -2.670861 0.325919 -1.491338
H -0.440623 1.824418 1.737560
H -0.518279 4.294036 1.456841
H -0.487090 5.288676 -0.829985
H -0.404315 3.792458 -2.817178
H -0.344235 1.347265 -2.535690
H 1.576820 0.306701 -2.129247
H 1.482105 -1.573750 -3.625781
H 2.990663 -1.725195 -2.689320
H 0.972343 -3.674686 -2.704858
H 2.054894 -3.452440 -1.324422
H 0.333373 -2.608429 -0.012718
H -0.825991 -2.897307 -1.321015
H 4.076648 -1.686140 1.456859
H 2.571692 -2.603273 1.218241
H 3.330626 -1.765500 -0.165439
H 1.562201 0.965010 3.464397
H 1.648398 -0.799413 3.670221
H 3.146395 0.159035 3.575491