25

N 0.665935 0.015803 -0.030417
C 1.469396 1.220544 0.007391
C 2.882844 0.703446 0.291194
C 2.860192 -0.711624 -0.292626
C 1.455616 -1.198569 0.065770
C -0.699351 0.070479 -0.034920
C -1.484650 1.170216 -0.075733
C -2.943624 0.792324 -0.156931
C -2.936116 -0.687306 0.273367
C -1.526802 -1.196871 -0.067756
H 1.407616 1.764422 -0.954770
H 1.106728 1.909709 0.790353
H 3.665145 1.341707 -0.139426
H 3.049274 0.653156 1.378104
H 2.966324 -0.668668 -1.387481
H 3.651378 -1.361854 0.102907
H 1.438792 -1.628376 1.087175
H 1.088950 -1.973085 -0.624992
H -1.120542 2.195734 -0.128870
H -3.593295 1.403327 0.489027
H -3.334207 0.905494 -1.185645
H -3.075410 -0.741414 1.363324
H -3.732541 -1.282515 -0.193684
H -1.479533 -1.641994 -1.077851
H -1.165254 -1.962088 0.636216