18

C 2.842158 0.005770 1.064601
Si 1.909319 -0.003723 -0.567787
H 2.269390 1.205083 -1.360650
H 2.268343 -1.222222 -1.346198
C 0.050362 -0.001614 -0.276349
C -0.657705 1.202334 -0.143513
C -2.026973 1.207615 0.120192
C -2.714501 0.001991 0.255496
C -2.029186 -1.205403 0.125128
C -0.659882 -1.203706 -0.138557
H 3.929234 0.004898 0.901124
H 2.580361 0.898701 1.650336
H 2.580409 -0.880485 1.660416
H -0.134727 2.156440 -0.254367
H -2.559959 2.155050 0.217134
H -3.786697 0.003371 0.458968
H -2.563857 -2.151488 0.225859
H -0.138593 -2.159163 -0.245586