47

C 1.929360 -0.293066 -1.594349
O 0.588610 -0.135887 -1.518083
Si -0.340407 0.042619 -0.120284
C -2.092167 -0.045861 -0.763926
C -3.175940 0.012251 0.126036
C -4.487894 -0.041875 -0.339523
C -4.735447 -0.156073 -1.708307
C -3.670226 -0.217172 -2.605104
C -2.357528 -0.162730 -2.135331
C -0.016746 -1.343931 1.099359
C 0.946484 -1.226115 2.113951
C 1.203635 -2.282492 2.986468
C 0.496659 -3.477698 2.858397
C -0.466931 -3.613170 1.859277
C -0.720964 -2.553679 0.989150
C 0.056426 1.699600 0.657763
C 0.658342 2.706418 -0.112252
C 0.924131 3.961285 0.433564
C 0.586675 4.229868 1.760082
C -0.013474 3.241616 2.539806
C -0.273347 1.986069 1.991534
C 2.876143 0.039953 -0.705457
C 4.235458 -0.399039 -1.190765
C 3.995353 -0.692592 -2.689308
C 2.490043 -0.979502 -2.812305
H -2.996606 0.098146 1.202209
H -5.320048 0.004911 0.364832
H -5.762407 -0.197935 -2.075554
H -3.861824 -0.307918 -3.675710
H -1.522664 -0.212013 -2.837471
H 1.500983 -0.291006 2.229511
H 1.956382 -2.171971 3.768694
H 0.694728 -4.305088 3.542137
H -1.024304 -4.546151 1.760315
H -1.484179 -2.668120 0.214283
H 0.930968 2.498313 -1.150567
H 1.397425 4.732175 -0.176850
H 0.793651 5.211972 2.188965
H -0.275215 3.448533 3.578919
H -0.731656 1.215016 2.618342
H 2.696073 0.519224 0.257469
H 5.015844 0.361515 -1.038338
H 4.567111 -1.302803 -0.649438
H 4.235438 0.209749 -3.270686
H 4.623576 -1.507454 -3.072275
H 2.254828 -2.056863 -2.763210
H 2.040433 -0.594189 -3.739484