14

C 0.000039 0.666811 1.251804
C 0.000039 -0.666811 1.251804
C -0.000061 -1.498844 0.000000
C 0.000039 -0.666811 -1.251804
C 0.000039 0.666811 -1.251804
C -0.000071 1.498844 0.000000
H 0.000126 1.203020 2.204996
H 0.000124 -1.203020 2.204995
H 0.874817 -2.173669 0.000000
H -0.875114 -2.173447 0.000000
H 0.000124 -1.203020 -2.204995
H 0.000126 1.203020 -2.204996
H -0.875143 2.173424 0.000000
H 0.874787 2.173693 0.000000