35

C -0.293422 1.753107 -0.371616
Si 0.000011 -0.000319 -0.989477
H 0.000193 -0.001341 -2.481128
C 1.664827 -0.622434 -0.371056
C 2.215833 -1.802856 -0.896190
C 3.426239 -2.303659 -0.421367
C 4.109318 -1.628316 0.591435
C 3.578026 -0.455521 1.124715
C 2.364864 0.042102 0.646069
C -1.371703 -1.130691 -0.371262
C -2.670072 -1.016019 -0.894513
C -3.708984 -1.813711 -0.419386
C -3.464761 -2.744582 0.591565
C -2.182783 -2.872361 1.123154
C -1.145177 -2.070594 0.644309
C -1.226960 2.029067 0.637536
C -1.402322 3.328628 1.115830
C -0.644402 4.373134 0.589797
C 0.289924 4.117172 -0.415152
C 0.461424 2.818393 -0.889448
H 1.690463 -2.342929 -1.689458
H 3.840062 -3.221540 -0.842284
H 5.058348 -2.017766 0.963948
H 4.109533 0.075166 1.916429
H 1.958405 0.964538 1.069604
H -2.875458 -0.290115 -1.686850
H -4.711369 -1.712180 -0.838810
H -4.276730 -3.371351 0.964278
H -1.988478 -3.599450 1.913423
H -0.142360 -2.181095 1.065899
H -1.828834 1.217287 1.054960
H -2.134065 3.525361 1.901155
H -0.781247 5.389954 0.961828
H 0.884089 4.932964 -0.830325
H 1.198083 2.631809 -1.676502