31

C -2.741564 0.618589 0.215176
C -1.664562 -0.464545 0.286884
C -2.214033 -1.789219 -0.246228
P -0.115224 0.027612 -0.666273
C 0.436975 1.512770 0.359164
C 1.954626 1.677725 0.445406
C -0.147134 2.781763 -0.275522
C 1.008548 -1.398642 -0.166025
C 2.363168 -1.343711 -0.880319
C 1.150507 -1.678674 1.329541
H -3.675124 0.249734 0.667952
H -2.451504 1.526541 0.760685
H -2.960898 0.895801 -0.828419
H -1.385205 -0.593887 1.345819
H -2.412773 -1.722263 -1.327667
H -1.525359 -2.629276 -0.079135
H -3.161953 -2.037063 0.255754
H 0.033603 1.394282 1.380465
H 2.404326 1.706648 -0.559994
H 2.195133 2.632043 0.939924
H 2.442304 0.876971 1.014648
H -1.231272 2.728372 -0.434455
H 0.063103 3.658586 0.357069
H 0.317879 2.952722 -1.258548
H 0.471297 -2.249856 -0.616996
H 2.871268 -2.316938 -0.796042
H 2.239964 -1.115900 -1.949150
H 3.032865 -0.588419 -0.449094
H 0.187444 -1.936150 1.792875
H 1.832504 -2.527623 1.496635
H 1.561576 -0.814839 1.873296