19

Cl 2.485321 1.991815 -0.722401
C 2.826339 0.256348 -0.933700
H 2.550005 -0.090150 -1.932230
S 2.167915 -0.723129 0.265843
C 0.362909 -0.516275 0.266629
C -0.439102 -1.397361 -0.466601
C -1.803433 -1.165052 -0.580412
C -2.341714 -0.036608 0.040502
N -3.780305 0.215124 -0.076460
O -4.445741 -0.573713 -0.712407
O -4.233059 1.199786 0.465978
C -1.558914 0.853470 0.775197
C -0.196747 0.604882 0.891712
O 2.365337 -2.126890 -0.126900
O 2.548510 -0.271132 1.607541
H 0.037827 -2.265276 -0.925449
H -2.462674 -1.833839 -1.131532
H -2.032215 1.713459 1.246227
H 0.455685 1.258309 1.471875