20

N -1.271107 0.000667 -0.000497
C -0.780178 -0.783067 -1.130970
C 0.780654 -0.783751 -1.130135
N 1.271101 -0.000256 0.000662
C 0.779515 -0.587923 1.243947
C -0.781110 -0.587466 1.243153
C 0.780383 1.370674 -0.112699
C -0.779244 1.371244 -0.113190
H -1.185351 -1.802964 -1.047440
H -1.184292 -0.346460 -2.056977
H 1.184784 -1.803996 -1.045840
H 1.186136 -0.347811 -2.055872
H 1.183922 -1.608102 1.328050
H 1.184137 -0.006030 2.086003
H -1.186258 -0.005374 2.084832
H -1.186263 -1.607389 1.326775
H 1.185333 1.954447 0.727928
H 1.185431 1.808194 -1.037849
H -1.183308 1.809100 -1.038604
H -1.184335 1.955247 0.727202