22

F -2.956781 0.420748 -1.130437
B -2.490503 -0.277449 0.007888
F -2.883182 0.446973 1.152030
F -3.029657 -1.564948 0.035503
C -0.855256 -0.361159 -0.029445
N -0.081816 0.788880 -0.032883
C -0.609926 2.130032 -0.007302
C -0.001191 -1.444352 -0.021402
C 1.346145 -0.956253 -0.013349
C 1.249704 0.468270 -0.014118
C 2.381802 1.291029 0.005027
C 3.632836 0.681636 0.015690
C 3.752570 -0.720986 0.010857
C 2.625991 -1.536479 -0.003122
H -0.568390 2.562817 1.005620
H -0.034765 2.772741 -0.692065
H -1.653264 2.092322 -0.338813
H -0.328439 -2.480963 -0.019315
H 2.286844 2.378871 0.016290
H 4.532997 1.300214 0.030783
H 4.747311 -1.172331 0.021055
H 2.733467 -2.623966 -0.003693