47

H 0.002094 -0.000918 2.275894
C 0.001611 -0.000293 1.172579
C 1.461756 -0.031695 0.740860
C 2.390361 0.786058 1.405283
C 3.719305 0.830730 1.018684
C 4.165402 0.050567 -0.059469
O 5.477954 0.153427 -0.369981
C 5.967327 -0.607944 -1.440187
C 3.257267 -0.769250 -0.731748
C 1.918515 -0.803035 -0.324477
C -0.756759 -1.248739 0.741123
C -0.511890 -2.462374 1.403675
C -1.138363 -3.635276 1.016956
C -2.038637 -3.630505 -0.059922
O -2.606980 -4.818114 -0.370445
C -3.516522 -4.858578 -1.436061
C -2.295042 -2.433666 -0.730778
C -1.654081 -1.257795 -0.323397
C -0.701286 1.280615 0.742130
C -1.872045 1.677125 1.408930
C -2.576380 2.804905 1.022137
C -2.126427 3.579623 -0.058309
O -2.872162 4.664777 -0.368389
C -2.459734 5.467614 -1.440715
C -0.964355 3.201732 -0.733203
C -0.264686 2.059887 -0.325950
H 2.053315 1.405992 2.240139
H 4.445106 1.461051 1.533281
H 5.839891 -1.688515 -1.259751
H 5.466485 -0.345019 -2.387052
H 7.036085 -0.382578 -1.525811
H 3.572894 -1.391177 -1.568134
H 1.221776 -1.454904 -0.854973
H 0.195085 -2.481198 2.237146
H -0.955150 -4.579454 1.530556
H -3.857225 -5.896352 -1.521920
H -4.387133 -4.207521 -1.250135
H -3.042729 -4.555121 -2.384725
H -2.992050 -2.395505 -1.566657
H -1.870367 -0.328355 -0.853534
H -2.238659 1.076490 2.245450
H -3.483650 3.119365 1.538744
H -2.438897 4.900536 -2.386542
H -3.189647 6.280215 -1.526193
H -1.460015 5.898207 -1.263155
H -0.586213 3.784342 -1.572007
H 0.646489 1.781447 -0.858953