12

C 2.053167 0.030905 0.000699
N 0.607724 0.017309 -0.000948
C -0.222700 1.110273 -0.000348
C -1.499908 0.601226 0.000325
N -1.467848 -0.765115 0.000403
C -0.198859 -1.080574 -0.000153
H 2.438232 0.521844 0.904964
H 2.416605 -1.003414 -0.018954
H 2.438165 0.555460 -0.884374
H 0.161658 2.126261 -0.000937
H -2.437007 1.153562 0.000337
H 0.213017 -2.090064 -0.000364