19

N -3.959982 -0.201727 -0.431402
N -2.914935 -0.149954 -0.012202
N -1.809789 -0.177774 0.509190
C -0.812432 0.770107 -0.005159
C 0.558463 0.298843 0.429017
H 0.559490 0.239258 1.538740
N 0.894168 -0.975309 -0.181429
C 2.320571 -1.141875 0.040647
C 2.876620 0.241801 -0.328768
C 1.708579 1.212478 -0.029202
H -0.840924 0.807477 -1.107449
H -1.009557 1.781249 0.391921
H 0.328669 -1.733649 0.192901
H 2.564450 -1.372517 1.098516
H 2.731263 -1.948496 -0.582677
H 3.786235 0.484061 0.235824
H 3.129850 0.271186 -1.396504
H 1.416414 1.759442 -0.937871
H 1.957064 1.957217 0.738284