19

N 1.311239 1.760531 -0.148322
C 1.316909 0.389423 0.372008
C 0.103454 -0.390870 -0.114056
C -1.203783 0.262751 0.310653
S -2.646882 -0.632338 -0.352869
C -3.953226 0.464157 0.253035
C 2.654810 -0.385311 0.061957
O 3.608142 0.346205 -0.270978
O 2.609049 -1.616517 0.217625
H 2.289922 2.044651 -0.035695
H 1.255352 1.660237 -1.166348
H 1.254307 0.446593 1.477292
H 0.138744 -0.460508 -1.217049
H 0.196349 -1.416254 0.268562
H -1.277852 0.282017 1.410289
H -1.228868 1.303602 -0.045648
H -4.917431 0.065543 -0.089452
H -3.957922 0.507586 1.352155
H -3.827686 1.481828 -0.144701