17

C -2.176627 -0.075600 0.000098
C -1.286451 1.210589 -0.000040
N 0.036823 0.658480 -0.000008
C 1.387144 1.160275 0.000005
C 2.181461 -0.200378 0.000068
N 1.203690 -1.293535 -0.000007
C 0.068223 -0.714516 -0.000048
N -1.217921 -1.166113 -0.000144
H -2.827252 -0.101178 0.888587
H -2.827613 -0.101122 -0.888125
H -1.487624 1.832905 -0.889619
H -1.487595 1.833066 0.889432
H 1.605582 1.773927 -0.891230
H 1.605540 1.773988 0.891208
H 2.836553 -0.270157 -0.882724
H 2.836414 -0.270155 0.882964
H -1.454651 -2.145318 0.000117