28

N 1.499236 4.860027 0.181364
C 1.415143 3.699613 0.141800
C 1.367109 2.277077 0.088974
H 2.333781 1.761175 0.164504
N 0.204329 1.666495 0.011595
C -0.039920 0.364787 -0.004469
C -1.444304 -0.050700 -0.040941
C -2.475565 0.906534 0.126103
C -3.814889 0.549262 0.076853
C -4.202201 -0.778789 -0.138711
C -3.203422 -1.735305 -0.317121
C -1.856048 -1.383102 -0.274434
C 1.041611 -0.652691 0.012197
C 2.128070 -0.565414 -0.878681
C 3.159246 -1.500990 -0.865181
C 3.139890 -2.562086 0.041369
C 2.071862 -2.668824 0.933512
C 1.044626 -1.728070 0.920929
H -2.174338 1.941000 0.291268
H -4.577020 1.321361 0.213237
H -5.257411 -1.056751 -0.171595
H -3.473683 -2.778296 -0.503364
H -1.103541 -2.154903 -0.444012
H 2.146140 0.256422 -1.597115
H 3.983866 -1.405028 -1.575541
H 3.948487 -3.295622 0.054062
H 2.043395 -3.489456 1.654476
H 0.218129 -1.813360 1.630181