39

O 1.669556 -1.188981 3.968245
C 1.411840 -0.985781 2.797016
H 2.042489 -1.476421 2.001235
C 0.368525 -0.148336 2.284388
P 0.042283 -0.027251 0.617860
C -0.943530 1.463255 0.273346
C -0.461814 2.491807 -0.540358
C -1.244210 3.625647 -0.761633
C -2.501622 3.734417 -0.171929
C -2.984780 2.706515 0.639737
C -2.211576 1.570420 0.860352
C 1.565277 0.087675 -0.383115
C 2.632284 0.822766 0.148915
C 3.792123 1.005618 -0.599613
C 3.893453 0.453535 -1.877213
C 2.836104 -0.286019 -2.404783
C 1.671183 -0.471646 -1.661017
C -0.928529 -1.380025 -0.155544
C -0.882150 -2.643633 0.438133
C -1.580818 -3.707376 -0.132132
C -2.335414 -3.506618 -1.287104
C -2.395857 -2.241519 -1.873771
C -1.695025 -1.177408 -1.309785
H -0.306199 0.364529 2.971461
H 0.524330 2.410787 -1.002001
H -0.866133 4.426662 -1.398216
H -3.110265 4.622974 -0.346342
H -3.969712 2.790219 1.101224
H -2.594054 0.762549 1.489138
H 2.544037 1.238771 1.154956
H 4.622203 1.576051 -0.180782
H 4.804484 0.594621 -2.460978
H 2.918824 -0.727099 -3.399115
H 0.851473 -1.061028 -2.075479
H -0.309908 -2.784825 1.358851
H -1.541224 -4.693168 0.333269
H -2.887308 -4.337593 -1.729366
H -2.996215 -2.081615 -2.770651
H -1.750286 -0.184575 -1.764388