32

C 1.963768 0.626802 1.856724
Si 2.229296 0.004109 0.109114
O 0.813865 -0.734535 -0.449508
C -0.448989 -0.247132 -0.538429
C -0.778638 1.043676 -0.377533
C -2.197647 1.551604 -0.452082
C -3.147512 0.971695 0.605780
C -3.599586 -0.463138 0.334038
C -2.495641 -1.520153 0.296822
C -1.465705 -1.325402 -0.823074
C 2.759663 1.376700 -1.052851
C 3.486673 -1.375906 0.087296
H 1.639035 -0.200702 2.505178
H 2.904529 1.028308 2.263751
H 1.202750 1.417359 1.910275
H 0.009756 1.772057 -0.172915
H -2.179005 2.645532 -0.347517
H -2.625900 1.354911 -1.452875
H -2.659484 1.029230 1.593061
H -4.046367 1.606736 0.660040
H -4.340126 -0.752581 1.096468
H -4.134004 -0.484191 -0.632923
H -1.970031 -1.552179 1.265844
H -2.969925 -2.505391 0.165849
H -1.996640 -1.090561 -1.762261
H -0.908275 -2.255896 -0.990854
H 3.764989 1.731057 -0.777154
H 2.805373 0.999956 -2.085568
H 2.080749 2.240280 -1.036676
H 3.166760 -2.201252 0.739727
H 3.608625 -1.775109 -0.930101
H 4.467813 -1.021281 0.436974