18

C 3.234836 -0.594121 0.000018
C 1.789306 -0.166487 -0.000020
C 1.474173 1.215959 -0.000014
C 0.169585 1.678369 -0.000001
C -0.867309 0.733592 0.000006
N -2.237770 0.911715 0.000015
C -2.729704 -0.290356 0.000007
N -1.773601 -1.275322 -0.000001
H -1.938777 -2.271818 0.000000
C -0.550901 -0.641147 -0.000004
C 0.768347 -1.110041 -0.000020
H 3.759764 -0.207158 0.886090
H 3.329879 -1.687791 -0.000447
H 3.760049 -0.206365 -0.885535
H 2.297641 1.933663 -0.000025
H -0.062637 2.743618 -0.000002
H -3.791869 -0.535725 0.000013
H 0.995553 -2.177785 -0.000032