18

O 1.073926 2.249994 -1.230276
S 0.958729 1.454435 0.000060
C -0.675103 0.690244 -0.000032
C -0.674792 -0.690582 -0.000032
C -1.862604 -1.410540 -0.000123
C -3.064064 -0.700479 -0.000192
C -3.064374 0.699141 -0.000191
C -1.863214 1.409720 -0.000122
S 0.959404 -1.454010 0.000052
O 1.074899 -2.249587 1.230348
O 1.074977 -2.249506 -1.230288
C 1.824049 0.000418 0.000196
H 2.909042 0.000583 0.000766
O 1.073835 2.250058 1.230366
H -1.836400 -2.501782 -0.000134
H -4.012639 -1.241034 -0.000252
H -4.013194 1.239263 -0.000251
H -1.837420 2.500969 -0.000132