39

C -1.540897 2.007261 0.528032
C -1.661452 0.758103 -0.320190
C -0.400136 0.422960 -1.075176
Si 1.075531 -0.032544 0.049340
C 0.451221 -1.107775 1.470962
C -0.139420 -2.439031 0.999810
C 2.310796 -0.998752 -1.010339
C 3.587825 -1.389481 -0.261916
C 1.950794 1.494158 0.748285
C 2.550853 2.413273 -0.318755
C -2.786985 0.014273 -0.341895
C -3.998631 0.326069 0.502120
C -2.996943 -1.204041 -1.204686
H -0.829548 2.711446 0.070382
H -2.494785 2.533951 0.649176
H -1.155356 1.777398 1.536618
H -0.536127 -0.417062 -1.769669
H -0.090878 1.285518 -1.692904
H 1.273375 -1.278398 2.186159
H -0.312876 -0.529101 2.017910
H 0.624877 -3.068834 0.518979
H -0.568844 -3.019346 1.829714
H -0.940983 -2.274155 0.263620
H 1.802802 -1.898252 -1.397465
H 2.556687 -0.392680 -1.899092
H 4.134852 -0.499775 0.086466
H 3.360015 -1.998883 0.626826
H 4.276280 -1.972324 -0.891344
H 1.250558 2.053408 1.388612
H 2.744607 1.133644 1.425145
H 1.777746 2.795045 -1.003441
H 3.055349 3.285087 0.123003
H 3.293365 1.881032 -0.933481
H -4.846922 0.639467 -0.129588
H -4.326314 -0.582193 1.033342
H -3.826042 1.102345 1.255034
H -2.182991 -1.399029 -1.911087
H -3.132692 -2.105281 -0.583676
H -3.925746 -1.089524 -1.787512