10

O -2.295932 -0.611965 0.000254
C -1.141636 -0.211731 0.000129
C -0.636193 1.237439 -0.000003
N 0.797164 1.213204 -0.000130
C 1.193626 -0.040563 -0.000130
O 2.300492 -0.574003 -0.000179
N -0.000538 -0.924917 0.000035
H -1.081766 1.746385 -0.880853
H -1.081610 1.746484 0.880867
H 0.055735 -1.934011 0.000080