16

H -1.222159 1.543091 0.000000
N -0.207551 1.443285 0.000000
C 0.207551 0.737219 1.205181
C -0.207551 -0.737219 1.205181
N 0.207551 -1.443285 0.000000
C -0.207551 -0.737219 -1.205181
C 0.207551 0.737219 -1.205181
H 1.309441 0.798994 1.269707
H -0.191536 1.260199 2.088186
H 0.191536 -1.260199 2.088186
H -1.309441 -0.798994 1.269707
H 1.222159 -1.543091 0.000000
H 0.191536 -1.260199 -2.088186
H -1.309441 -0.798994 -1.269707
H -0.191536 1.260199 -2.088186
H 1.309441 0.798994 -1.269707