18

O -2.535417 -0.459441 0.147453
C -1.654107 0.581283 -0.205411
C -0.289182 0.220766 0.330619
H -0.387795 0.087411 1.430989
N 0.224969 -0.975824 -0.312158
C 1.619969 -1.049433 0.084480
C 2.099461 0.401713 -0.098857
C 0.812444 1.251020 0.045612
H -3.370174 -0.332058 -0.312168
H -1.569320 0.690427 -1.302408
H -1.977760 1.551413 0.218517
H -0.322273 -1.795933 -0.062977
H 1.747642 -1.351349 1.145067
H 2.177747 -1.765122 -0.536163
H 2.868874 0.671369 0.636371
H 2.535954 0.535506 -1.097322
H 0.591462 1.778276 -0.894555
H 0.882690 2.004256 0.841463