24

C 1.840897 -0.781383 1.352202
C 2.287845 0.010396 0.142632
C 3.451142 0.941244 0.350481
N 1.740187 -0.030355 -1.004452
C 0.591290 -0.895769 -1.209203
C -0.681215 -0.355848 -0.583563
C -0.922189 1.022291 -0.541929
C -2.099537 1.518891 0.013453
C -3.054705 0.645983 0.535294
C -2.822479 -0.727824 0.498983
C -1.642214 -1.222821 -0.055220
H 2.600742 -0.765642 2.143186
H 0.911070 -0.346706 1.753097
H 1.618645 -1.827007 1.095824
H 4.348064 0.372827 0.642060
H 3.651435 1.497312 -0.571836
H 3.234929 1.644313 1.169869
H 0.434959 -0.991342 -2.295245
H 0.765641 -1.918143 -0.828664
H -0.170177 1.703474 -0.943988
H -2.273167 2.595930 0.038698
H -3.975429 1.036304 0.971293
H -3.560019 -1.419302 0.909795
H -1.461015 -2.300498 -0.071709