51

H -0.025961 1.089576 -2.042875
C -0.016549 0.948014 -0.948665
C 1.275298 0.213610 -0.617217
C 1.700977 -0.841705 -1.430630
C 2.842261 -1.579149 -1.144288
C 3.621472 -1.291236 -0.001111
N 4.752914 -2.022496 0.297953
C 5.210476 -3.035127 -0.620099
C 5.564529 -1.646109 1.427815
C 3.196160 -0.223793 0.815935
C 2.049382 0.504027 0.507730
C -0.044486 2.345102 -0.339303
C 0.782759 3.335795 -0.884151
C 0.834104 4.611187 -0.330477
C 0.055803 4.919594 0.787036
C -0.771481 3.943386 1.335993
C -0.824072 2.665157 0.775187
C -1.254754 0.131738 -0.606292
C -2.469921 0.416843 -1.237655
C -3.639849 -0.264680 -0.928528
C -3.644819 -1.283334 0.050796
N -4.799010 -1.969426 0.366731
C -6.018010 -1.682969 -0.346641
C -4.750150 -3.035191 1.335417
C -2.419425 -1.572777 0.685955
C -1.258185 -0.877540 0.357889
H 1.114247 -1.100974 -2.316312
H 3.126555 -2.385135 -1.818468
H 5.444420 -2.622211 -1.618421
H 6.120230 -3.499016 -0.222113
H 4.459164 -3.831181 -0.756931
H 4.993219 -1.690023 2.370200
H 6.406872 -2.341767 1.515201
H 5.971964 -0.623039 1.331655
H 3.763397 0.053505 1.702801
H 1.759448 1.326912 1.164780
H 1.403183 3.090552 -1.750211
H 1.484827 5.368943 -0.770398
H 0.094773 5.918377 1.224712
H -1.385303 4.175694 2.208113
H -1.481562 1.907789 1.206264
H -2.505332 1.205952 -1.994140
H -4.554303 -0.002106 -1.457491
H -5.917109 -1.861101 -1.432279
H -6.818275 -2.330399 0.029452
H -6.338268 -0.635667 -0.209388
H -4.411782 -2.675562 2.322322
H -5.753023 -3.459727 1.458483
H -4.069698 -3.849055 1.026474
H -2.360897 -2.354446 1.441258
H -0.327226 -1.137498 0.866337