31

C -0.929024 -1.175899 1.683491
C -1.132096 -1.125685 0.364264
C -0.241634 -1.839532 -0.637394
C 1.262907 -1.923862 -0.369111
C 2.064955 -0.641433 -0.645009
C 2.158259 0.391531 0.502805
C 1.636707 1.810141 0.226903
C 0.125196 1.981578 0.390806
C -0.738822 1.547109 -0.803632
C -2.153638 1.118747 -0.379587
C -2.334259 -0.405943 -0.221501
H -0.067475 -1.685535 2.121063
H -1.629612 -0.701926 2.376678
H -0.645034 -2.863587 -0.736726
H -0.388283 -1.387065 -1.631817
H 1.455990 -2.271885 0.659308
H 1.656813 -2.715683 -1.024777
H 3.088508 -0.948441 -0.907570
H 1.671088 -0.165324 -1.558598
H 1.639293 0.002608 1.393452
H 3.216291 0.477664 0.793132
H 2.133363 2.490217 0.936332
H 1.955415 2.140956 -0.777937
H -0.183209 1.416454 1.283984
H -0.104296 3.037747 0.608766
H -0.790672 2.379495 -1.522508
H -0.253676 0.724613 -1.348467
H -2.393613 1.613588 0.576009
H -2.904057 1.477742 -1.099867
H -2.545431 -0.842920 -1.210830
H -3.222712 -0.599243 0.398171