31

C -3.423121 -0.856959 1.266596
C -3.186072 -0.040677 0.000178
C -3.423365 -0.856400 -1.266559
C -4.044797 1.216786 0.000526
O -1.828567 0.491053 0.000165
C -0.776928 -0.321687 0.000273
N 0.404245 0.418132 0.000023
C 0.505479 1.811981 -0.000192
C 1.812614 2.175867 -0.000412
C 2.599526 0.962710 -0.000326
C 1.694597 -0.122542 -0.000057
C 2.127122 -1.452685 0.000085
C 3.499777 -1.670815 -0.000052
C 4.417164 -0.605486 -0.000321
C 3.978991 0.710867 -0.000460
O -0.800720 -1.522993 0.000332
H -2.812635 -1.767232 1.271598
H -3.180591 -0.254787 2.154129
H -4.484004 -1.139467 1.320783
H -4.484288 -1.138753 -1.320714
H -3.180893 -0.253871 -2.153865
H -2.813035 -1.766773 -1.272066
H -3.833781 1.821496 0.893383
H -3.833926 1.821895 -0.892094
H -5.109019 0.945031 0.000554
H -0.399774 2.409880 -0.000169
H 2.189070 3.194991 -0.000612
H 1.412728 -2.272098 0.000294
H 3.871896 -2.696391 0.000053
H 5.486843 -0.819457 -0.000423
H 4.690062 1.538385 -0.000671