19

C 0.000000 3.545179 -0.686498
C -0.326087 2.354661 0.162712
C 0.341830 1.199621 0.152598
C 0.000000 0.000000 0.995559
H 0.849741 -0.255861 1.650050
H -0.849741 0.255861 1.650050
C -0.341830 -1.199621 0.152598
C 0.326087 -2.354661 0.162712
C 0.000000 -3.545179 -0.686498
H 0.241041 4.421954 -0.065646
H 0.857852 3.342069 -1.341982
H -0.856611 3.828659 -1.317313
H -1.179902 2.454700 0.844681
H 1.193330 1.081766 -0.529338
H -1.193330 -1.081766 -0.529338
H 1.179902 -2.454700 0.844681
H -0.241041 -4.421954 -0.065646
H -0.857852 -3.342069 -1.341982
H 0.856611 -3.828659 -1.317313