24

C -0.652171 0.093494 0.038320
C 0.842268 0.026052 0.008692
C 1.575896 1.195000 0.238871
C 2.966558 1.165805 0.220926
C 3.641570 -0.028795 -0.038236
C 2.916963 -1.192568 -0.285579
C 1.522733 -1.165591 -0.263165
N -1.224691 1.213126 -0.184109
C -2.673346 1.268857 -0.150704
C -3.345956 -0.073608 -0.430935
C -2.728679 -1.138011 0.465050
N -1.291126 -1.106892 0.284544
H 1.022726 2.115772 0.426045
H 3.530109 2.080918 0.409927
H 4.732396 -0.049809 -0.052771
H 3.437635 -2.125733 -0.506116
H 0.963078 -2.074788 -0.490996
H -2.992454 1.647778 0.837580
H -3.008476 2.020832 -0.881181
H -4.430879 -0.015558 -0.265196
H -3.181532 -0.352522 -1.483468
H -3.007929 -0.943016 1.517525
H -3.103292 -2.138988 0.204919
H -0.745675 -1.812333 0.761249