21

C 1.363927 -1.321576 0.798907
N 1.172129 -0.214977 -0.119699
C 2.388162 0.514546 -0.407496
C 0.012638 0.551847 -0.016517
N 0.087878 1.827816 -0.011139
N -1.161426 -0.205176 0.088957
C -1.373759 -1.322754 -0.811543
C -2.366858 0.491163 0.462698
H 1.845406 -0.986874 1.737701
H 0.403044 -1.779665 1.055766
H 2.009797 -2.085547 0.339739
H 3.164461 -0.200422 -0.716008
H 2.207719 1.234386 -1.212882
H 2.748861 1.082540 0.469541
H -0.834346 2.252193 -0.093799
H -1.902853 -2.140953 -0.297234
H -1.978761 -1.022882 -1.688112
H -0.410813 -1.695362 -1.176382
H -2.811300 1.068860 -0.373094
H -3.115578 -0.239967 0.799588
H -2.160363 1.180691 1.292062