19

C -3.444161 0.556983 0.083520
C -2.403855 -0.162496 0.501243
C -1.420834 -0.851556 -0.403524
C 0.003749 -0.375024 -0.199262
C 1.046570 -1.282808 0.004248
C 2.358681 -0.840101 0.172430
C 2.645224 0.522989 0.140829
C 1.611263 1.438931 -0.057125
C 0.302392 0.992778 -0.223073
H -3.651222 0.685159 -0.982891
H -4.126368 1.036209 0.788048
H -2.217528 -0.266947 1.576113
H -1.456505 -1.938333 -0.226624
H -1.719426 -0.689912 -1.452310
H 0.828299 -2.353084 0.029595
H 3.159091 -1.564984 0.329795
H 3.670335 0.872664 0.272228
H 1.826007 2.508718 -0.080490
H -0.506858 1.712337 -0.369172