16

C 0.249607 0.749478 0.000020
C -0.982960 1.427651 0.000055
C -2.156330 0.691290 0.000048
C -2.131014 -0.719226 0.000006
C -0.933749 -1.416966 -0.000032
C 0.251104 -0.668522 -0.000024
N 1.562659 -1.077354 -0.000065
C 2.383545 0.026626 -0.000012
C 1.626101 1.166122 0.000012
H -1.011065 2.518680 0.000087
H -3.118046 1.206380 0.000075
H -3.071995 -1.271699 -0.000001
H -0.916005 -2.507950 -0.000069
H 1.873835 -2.037510 -0.000094
H 3.464511 -0.090225 -0.000020
H 2.002329 2.185075 0.000036