19

C -1.855535 2.387312 -0.594622
N -0.760346 1.595141 -0.085209
C 0.055741 2.297652 0.893450
C -0.922438 0.223711 -0.002055
C -2.194961 -0.379307 -0.016232
C -2.316507 -1.761756 0.061353
N -1.284247 -2.595137 0.155913
C -0.072313 -2.051577 0.144053
C 0.161847 -0.680653 0.052387
Br 1.954741 -0.108584 -0.147607
H -1.467308 3.371618 -0.892405
H -2.291718 1.912297 -1.483016
H -2.657077 2.551887 0.152518
H -0.593043 2.877895 1.574150
H 0.632600 1.593918 1.500639
H 0.758954 2.990160 0.405467
H -3.092829 0.235612 -0.061538
H -3.312907 -2.214529 0.059097
H 0.784539 -2.730743 0.186395