25

C -2.750788 1.459664 -0.000246
C -2.387522 0.003214 -0.000968
C -3.512705 -0.991266 0.000856
C -1.113109 -0.404466 -0.003194
O -0.059935 0.451429 -0.005300
Si 1.564508 -0.008511 0.000351
C 1.913278 -1.024985 -1.535133
C 2.516064 1.595040 -0.007244
C 1.907426 -1.007493 1.548549
H -3.359632 1.710183 -0.884286
H -3.357627 1.709785 0.885284
H -1.854209 2.090637 -0.001157
H -4.158554 -0.857409 -0.882383
H -3.144630 -2.026757 -0.000110
H -4.155285 -0.857872 0.886551
H -0.872598 -1.477253 -0.003664
H 1.672801 -0.449651 -2.441300
H 2.974946 -1.311663 -1.582119
H 1.316086 -1.948910 -1.551802
H 2.267400 2.196417 0.879146
H 3.600741 1.411742 -0.005274
H 2.269055 2.187069 -0.900341
H 1.310222 -1.931274 1.572769
H 2.968918 -1.293368 1.603233
H 1.662880 -0.422212 2.447221