24

C 0.829681 0.000018 0.062265
N -0.554426 0.000033 0.128755
C -1.268102 -1.222407 -0.211781
C -2.723210 -1.147897 0.223838
O -3.356278 -0.000070 -0.272439
C -2.723246 1.147971 0.223366
C -1.268118 1.222350 -0.212225
C 1.584439 1.191763 0.029021
C 2.973396 1.126671 0.005800
N 3.681114 -0.000021 -0.002239
C 2.973358 -1.126683 0.005388
C 1.584392 -1.191736 0.028590
H -1.213168 -1.416965 -1.301498
H -0.811788 -2.074031 0.306861
H -3.269381 -2.020823 -0.156971
H -2.772799 -1.157782 1.330314
H -3.269411 2.020728 -0.157842
H -2.772866 1.158334 1.329837
H -0.811885 2.074182 0.306142
H -1.213115 1.416524 -1.302003
H 1.116406 2.172574 0.020135
H 3.544813 2.060616 -0.012582
H 3.544737 -2.060647 -0.013312
H 1.116323 -2.172527 0.019252