28

O -5.468955 -1.861921 -0.218101
N -5.294278 -0.671822 -0.013023
C -3.952077 -0.164495 -0.019608
C -2.876669 -1.023430 -0.286784
C -1.584710 -0.541364 -0.284954
C -1.286320 0.834658 -0.010843
C 0.000000 1.420587 0.000025
H -0.000001 2.514448 0.000028
C 1.286320 0.834661 0.010888
C 2.427208 1.677752 -0.211153
C 3.716187 1.201003 -0.216764
C 3.952080 -0.164486 0.019645
N 5.294283 -0.671807 0.013055
O 6.208966 0.108829 -0.196730
O 5.468953 -1.861934 0.217978
C 2.876674 -1.023426 0.286814
C 1.584715 -0.541364 0.284989
C -2.427210 1.677746 0.211204
C -3.716188 1.200993 0.216809
O -6.208978 0.108840 0.196599
H -3.087867 -2.068561 -0.510492
H -0.781816 -1.221650 -0.558661
H 2.249131 2.739017 -0.398321
H 4.566686 1.854919 -0.404662
H 3.087875 -2.068557 0.510515
H 0.781822 -1.221653 0.558691
H -2.249136 2.739010 0.398380
H -4.566689 1.854905 0.404714