35

C 4.187183 -1.538576 1.092206
Si 4.175219 0.000001 0.001133
C 4.187165 1.538581 1.092202
C 5.702102 0.000009 -1.103439
C 2.624311 -0.000010 -1.083769
C 1.298997 -0.000015 -0.310037
C 0.065729 -0.000014 -1.210274
Pb -1.839082 0.000000 -0.006626
C -1.852633 1.828987 1.302041
C -3.664420 0.000008 -1.315504
C -1.852654 -1.828979 1.302051
H 3.324147 -1.554346 1.774697
H 4.154816 -2.454663 0.482818
H 5.099746 -1.574087 1.706542
H 5.099727 1.574105 1.706538
H 4.154786 2.454667 0.482812
H 3.324128 1.554342 1.774693
H 5.720602 -0.889675 -1.750960
H 5.720591 0.889691 -1.750963
H 6.624134 0.000016 -0.502505
H 2.662433 0.880839 -1.749196
H 2.662443 -0.880860 -1.749192
H 1.269117 -0.880191 0.356878
H 1.269113 0.880157 0.356882
H 0.057380 0.886686 -1.862563
H 0.057372 -0.886720 -1.862554
H -1.860368 2.731646 0.677803
H -2.745793 1.822978 1.939657
H -0.957353 1.836571 1.937099
H -3.666088 -0.894854 -1.950480
H -4.564303 0.000016 -0.687528
H -3.666077 0.894865 -1.950486
H -0.957375 -1.836571 1.937108
H -2.745814 -1.822955 1.939667
H -1.860402 -2.731641 0.677818