48

C -0.751079 0.187925 3.160003
C 0.275887 0.127726 2.301939
Si 0.002452 0.002950 0.420492
Si 0.353717 2.131370 -0.528645
C 1.809497 3.006586 0.303132
C 0.719052 1.972221 -2.378714
C -1.192673 3.190729 -0.280262
Si 1.578128 -1.490198 -0.498528
C 1.652088 -3.081525 0.520396
C 1.076725 -1.937998 -2.267884
C 3.298418 -0.701930 -0.550432
Si -2.154662 -0.723001 -0.191751
C -3.559138 0.139850 0.741610
C -2.370552 -0.324678 -2.029359
C -2.318294 -2.587335 0.076516
C 1.701025 0.190739 2.795922
H -0.585118 0.286700 4.239469
H -1.790679 0.145749 2.826853
H 2.737727 2.422077 0.214787
H 1.980106 3.990320 -0.162182
H 1.605468 3.168529 1.372540
H -0.091461 1.448608 -2.907361
H 0.834854 2.968456 -2.834026
H 1.652549 1.413924 -2.550150
H -1.435880 3.266641 0.790898
H -1.039828 4.209570 -0.669375
H -2.063312 2.757283 -0.795598
H 0.668083 -3.572595 0.547082
H 2.375353 -3.788089 0.083689
H 1.954706 -2.884580 1.559294
H 0.981045 -1.042403 -2.900480
H 1.834954 -2.595578 -2.721610
H 0.114919 -2.473034 -2.284137
H 3.639149 -0.409253 0.453809
H 4.033088 -1.409383 -0.966491
H 3.300602 0.198356 -1.184208
H -3.407778 1.227867 0.798568
H -4.509220 -0.045270 0.215533
H -3.667262 -0.247147 1.765164
H -1.566175 -0.758367 -2.641180
H -3.330934 -0.720068 -2.396153
H -2.370688 0.764134 -2.191378
H -2.120773 -2.842227 1.129092
H -3.333329 -2.931885 -0.175881
H -1.605044 -3.146818 -0.547800
H 2.234022 -0.749982 2.581381
H 2.263228 0.991761 2.289608
H 1.746992 0.367137 3.881089