25

C -2.948384 0.055140 -0.997955
N -1.861743 -0.222537 -0.084886
C -0.802571 0.769464 -0.177998
C 0.532041 0.235004 0.308808
H 0.446928 -0.056985 1.380573
N 0.975485 -0.873475 -0.514929
C 2.347783 -1.123789 -0.116552
C 2.939092 0.297494 -0.014293
C 1.706731 1.214134 0.183296
C -2.349179 -0.389520 1.266666
H -2.573173 0.096667 -2.030034
H -3.699490 -0.746007 -0.939402
H -3.461284 1.017502 -0.777116
H -0.671041 1.030443 -1.239343
H -1.065415 1.703781 0.369140
H 0.353602 -1.674203 -0.438220
H 2.423203 -1.627710 0.870014
H 2.871598 -1.752019 -0.851145
H 3.657079 0.375136 0.812843
H 3.472324 0.562012 -0.936669
H 1.554982 1.851014 -0.700812
H 1.792445 1.871350 1.058988
H -3.091425 -1.200051 1.300058
H -1.529890 -0.659777 1.946566
H -2.829720 0.533371 1.661431