34

O 5.466965 -1.118002 -1.262916
C 5.638064 -0.250366 -0.425776
O 6.660455 0.517793 -0.233198
O 7.785504 0.325034 -1.071522
C 4.549654 0.048925 0.614899
C 3.159928 -0.018548 -0.000553
C 2.032486 0.103978 1.018336
C 0.644594 0.033098 0.390961
C -0.464819 0.161116 1.429018
N -1.794910 0.103714 0.846049
C -2.487753 -1.084536 0.619597
C -3.761901 -0.685925 -0.067685
C -4.817375 -1.462187 -0.517141
C -5.886096 -0.796456 -1.128489
C -5.882207 0.594911 -1.275329
C -4.809913 1.367950 -0.815445
C -3.757840 0.696886 -0.213856
C -2.480152 1.222515 0.374637
O -2.103751 2.360611 0.446860
O -2.119943 -2.184315 0.931165
H 4.628638 -0.714607 1.410239
H 4.744725 1.025498 1.082087
H 3.056286 0.777377 -0.758193
H 3.085639 -0.970997 -0.548572
H 2.133374 -0.697409 1.772155
H 2.133880 1.055833 1.570161
H 0.529705 0.837489 -0.354397
H 0.526893 -0.923958 -0.143488
H -0.399348 -0.654261 2.163690
H -0.388109 1.121875 1.958156
H -4.803301 -2.546147 -0.395552
H -6.737348 -1.369832 -1.498981
H -6.730203 1.082689 -1.758660
H -4.790300 2.453315 -0.923153