18

C -0.553759 0.747198 0.000091
C 0.551357 1.594028 0.000169
C 1.908349 1.265828 0.000122
C 2.498514 -0.000003 -0.000020
C 1.908349 -1.265829 -0.000153
C 0.551351 -1.594027 -0.000181
C -0.553758 -0.747195 -0.000083
C -1.899071 -1.149358 0.000043
C -2.703761 -0.000001 -0.000033
C -1.899067 1.149360 0.000043
H 0.317970 2.663578 0.000238
H 2.600757 2.110378 0.000190
H 3.592099 -0.000003 -0.000030
H 2.600752 -2.110382 -0.000231
H 0.317963 -2.663577 -0.000240
H -2.243453 -2.181992 0.000060
H -3.793661 0.000001 -0.000052
H -2.243451 2.181994 0.000079