23

C 2.546363 -1.400169 0.109291
C 1.268813 -0.624881 -0.040886
C 1.247666 0.684407 -0.307706
C 0.000002 1.511596 -0.450537
C 0.000004 2.679470 0.547736
H 0.000003 1.956556 -1.464232
C -1.247665 0.684410 -0.307706
C -1.268815 -0.624878 -0.040886
C -2.546366 -1.400163 0.109291
C -0.000002 -1.418583 0.124406
H 3.427189 -0.757904 -0.021406
H 2.603665 -1.870300 1.104381
H 2.597595 -2.215928 -0.629981
H 2.199210 1.216592 -0.416781
H 0.890421 3.311741 0.415180
H -0.890412 3.311742 0.415180
H 0.000003 2.294794 1.578069
H -2.199207 1.216597 -0.416782
H -3.427190 -0.757895 -0.021406
H -2.597600 -2.215922 -0.629981
H -2.603671 -1.870293 1.104381
H -0.000003 -2.261631 -0.593471
H -0.000003 -1.905406 1.118834