12

C 2.116764 -0.014538 0.000088
C 0.634307 0.102237 -0.000034
C -0.222486 1.163550 -0.000425
C -1.547267 0.612164 0.000287
C -1.384995 -0.737650 -0.000200
O -0.071578 -1.051535 0.000242
H 2.468274 -0.558090 0.889199
H 2.468110 -0.560624 -0.887528
H 2.568080 0.984347 -0.001374
H 0.059464 2.212592 -0.000753
H -2.489953 1.151182 0.000512
H -2.079294 -1.571701 -0.000277