19

C 4.151191 -0.000200 0.003802
C 2.642457 0.000028 0.018986
C 1.925669 -1.202638 0.007252
C 0.531886 -1.206385 -0.013515
C -0.160476 0.000194 -0.013977
C 0.531970 1.206646 -0.012471
C 1.925829 1.202724 0.008187
S -1.968862 0.000114 -0.015664
N -2.227305 -0.008607 1.523969
H -3.248959 -0.009991 1.620283
O -2.340587 1.239703 -0.740935
O -2.340348 -1.231351 -0.754717
H 4.540659 -0.004467 -1.027479
H 4.555629 0.892080 0.503072
H 4.555460 -0.888530 0.510252
H 2.473380 -2.149868 0.012860
H -0.050324 -2.129528 -0.038444
H -0.050230 2.129815 -0.036611
H 2.473644 2.149884 0.014541