14

O 2.714903 -1.488743 -0.000096
C 1.836085 -0.607119 -0.000072
C 2.124480 0.816713 0.000015
C 1.140793 1.791920 0.000070
C -0.223924 1.477313 0.000058
C -0.529022 0.112062 -0.000003
N -1.957842 -0.267150 -0.000007
O -2.787309 0.620420 0.000047
O -2.249295 -1.443276 0.000029
C 0.413382 -0.900485 -0.000060
H 3.182643 1.091789 0.000030
H 1.437333 2.845909 0.000127
H -1.011102 2.225365 0.000101
H 0.098853 -1.942640 -0.000102