49

C -4.219868 -1.403760 -0.991288
C -2.896755 -1.958282 -0.443850
C -2.917573 -3.482642 -0.514102
O -1.833889 -1.470410 -1.215880
B -1.306267 -0.228353 -0.588210
C 0.306679 -0.376705 -0.350987
C 0.988722 0.389279 0.607390
C 2.368342 0.288259 0.784587
C 3.102314 -0.597105 -0.006652
C 4.575078 -0.763181 0.186237
F 4.888077 -1.918355 0.800735
F 5.244197 -0.781701 -0.978591
F 5.115735 0.213391 0.926689
C 2.451998 -1.376650 -0.967843
C 1.074290 -1.260800 -1.128202
C -1.605042 1.111236 -1.526454
C -1.251735 2.383340 -0.832427
C -0.061356 3.076898 -1.103540
C 0.292944 4.224275 -0.393720
C -0.537548 4.714320 0.613039
C -1.724079 4.035361 0.900795
C -2.072042 2.889612 0.191544
O -2.061858 -0.115706 0.685274
C -2.588572 -1.380181 0.982612
C -3.812635 -1.215029 1.877941
C -1.535443 -2.226094 1.712832
H -5.099181 -1.854360 -0.503936
H -4.254720 -0.313879 -0.852405
H -4.261460 -1.615271 -2.069969
H -3.160785 -3.798522 -1.540165
H -1.931405 -3.891803 -0.259031
H -3.671568 -3.907877 0.168615
H 0.414210 1.082045 1.229328
H 2.880475 0.895633 1.532959
H 3.032460 -2.068747 -1.583445
H 0.553746 -1.877864 -1.865693
H -1.052004 1.020556 -2.475093
H -2.682363 1.089871 -1.757343
H 0.605361 2.692030 -1.879664
H 1.229515 4.736460 -0.626966
H -0.262729 5.611641 1.171505
H -2.381836 4.399745 1.693738
H -2.979866 2.337897 0.442166
H -4.518302 -0.495671 1.442071
H -4.329296 -2.175902 2.034510
H -3.495965 -0.827008 2.857886
H -1.168898 -1.649576 2.575109
H -1.946513 -3.183085 2.071778
H -0.679958 -2.428532 1.052997