19

C 2.268611 -1.254804 0.000114
N 1.553054 -0.000035 -0.000224
C 0.185266 -0.000109 -0.000117
C -0.564185 -1.197639 -0.000053
C -1.952396 -1.129183 0.000007
N -2.658306 0.000059 0.000019
C -1.952247 1.129209 -0.000006
C -0.564032 1.197488 -0.000061
C 2.268236 1.254935 0.000155
H 2.032167 -1.860539 -0.891113
H 3.346017 -1.056944 -0.000109
H 2.032400 -1.860017 0.891771
H -0.081752 -2.172956 -0.000047
H -2.527776 -2.061127 0.000036
H -2.527502 2.061229 0.000023
H -0.081425 2.172735 -0.000065
H 2.031630 1.860600 -0.891079
H 2.031772 1.860060 0.891805
H 3.345705 1.057416 -0.000012