41

C -0.717253 4.076728 0.803829
C 0.164136 3.741960 -0.403672
C 0.307481 2.293469 -0.576730
C 0.408735 1.089231 -0.655071
N 0.493619 -0.258986 -0.756046
C 1.648621 -0.849021 -1.460044
C 2.957474 -0.599559 -0.751295
C 3.284008 -1.334705 0.394476
C 4.468189 -1.074971 1.079069
C 5.336585 -0.080465 0.626294
C 5.015513 0.656339 -0.511835
C 3.827741 0.397660 -1.195722
S -0.207165 -1.141823 0.523233
C -1.928574 -0.820737 0.264717
C -2.620706 -1.572656 -0.681954
C -3.966155 -1.297525 -0.896692
C -4.621767 -0.286933 -0.178672
C -6.085546 -0.017302 -0.402396
C -3.896435 0.444995 0.768757
C -2.548350 0.183315 1.001633
O 0.081783 -2.532744 0.213261
O 0.174123 -0.566236 1.796197
H -0.806076 5.164493 0.927261
H -1.725124 3.658371 0.673741
H -0.288752 3.653803 1.722658
H -0.264192 4.186711 -1.315273
H 1.161346 4.189722 -0.272247
H 1.445468 -1.922728 -1.552887
H 1.656524 -0.405962 -2.465278
H 2.597808 -2.106671 0.751718
H 4.715593 -1.652121 1.971258
H 6.264704 0.120610 1.163700
H 5.690198 1.436294 -0.868256
H 3.569941 0.978466 -2.084715
H -2.105037 -2.363198 -1.229428
H -4.522820 -1.877625 -1.635546
H -6.699250 -0.665287 0.242389
H -6.339817 1.024172 -0.165677
H -6.372141 -0.218796 -1.443129
H -4.395976 1.234270 1.334462
H -1.972504 0.740453 1.742028