40

C 2.161914 3.354079 -0.230378
C 0.904383 2.898483 -0.183238
C 0.256309 1.951827 -1.125928
B -0.068953 0.491821 -0.404700
O -0.841285 0.664559 0.865295
C -2.132147 0.156565 0.686452
C -2.639014 -0.414956 2.008704
C -3.065704 1.288702 0.231330
C -1.936745 -0.907705 -0.449779
C -1.380035 -2.224354 0.113706
C -3.192009 -1.199611 -1.267676
O -0.983677 -0.297337 -1.273463
C 1.332291 -0.297326 -0.105165
C 1.893076 -1.175803 -1.045213
C 3.102988 -1.833777 -0.813311
C 3.793492 -1.625684 0.381697
C 3.257131 -0.758004 1.335102
C 2.045796 -0.108934 1.088834
H 2.571971 3.994349 0.555113
H 2.832059 3.070762 -1.048096
H 0.283930 3.186917 0.676125
H -0.719858 2.353798 -1.450815
H 0.881371 1.802080 -2.022935
H -2.757780 0.402271 2.736588
H -3.613363 -0.916814 1.887822
H -1.914076 -1.129199 2.419674
H -2.760856 1.643654 -0.763240
H -4.122422 0.977752 0.193339
H -2.965334 2.122701 0.942043
H -2.141698 -2.793137 0.671188
H -1.024191 -2.836796 -0.728430
H -0.522212 -2.026329 0.772166
H -3.519835 -0.299278 -1.803629
H -2.966076 -1.973901 -2.016703
H -4.015457 -1.562284 -0.630745
H 1.345740 -1.351362 -1.976955
H 3.509828 -2.517487 -1.564229
H 4.740593 -2.137943 0.570101
H 3.787851 -0.589459 2.276526
H 1.623917 0.561817 1.843109