18

C -2.361651 -0.000003 -0.019584
N -0.948742 0.000004 -0.313073
C -0.284691 -1.191276 0.182114
C 1.188266 -1.159346 -0.195347
O 1.811461 -0.000002 0.296401
C 1.188268 1.159341 -0.195350
C -0.284687 1.191282 0.182118
H -2.572796 -0.000133 1.072440
H -2.836281 0.890211 -0.457454
H -2.836334 -0.890078 -0.457682
H -0.371685 -1.271250 1.290195
H -0.761905 -2.081886 -0.256186
H 1.717513 -2.020507 0.234175
H 1.277011 -1.201373 -1.298532
H 1.717523 2.020502 0.234162
H 1.277004 1.201360 -1.298536
H -0.761894 2.081893 -0.256187
H -0.371676 1.271261 1.290198