34

O -1.825744 2.422986 -0.862609
C -2.025412 1.338190 -0.344807
C -1.345709 0.760526 0.757868
C -0.170496 1.486305 1.349033
C 1.138519 0.999566 0.769560
C 1.691848 1.595949 -0.373876
C 2.861053 1.109611 -0.946289
C 3.506652 -0.000583 -0.390497
O 4.654159 -0.410266 -1.013102
C 5.297977 -1.537826 -0.505150
C 2.961183 -0.621258 0.735607
C 1.784992 -0.118117 1.301068
C -1.736045 -0.472485 1.337049
O -2.787863 -1.130758 0.701355
C -3.000900 -0.817637 -0.653674
C -1.903567 -1.445001 -1.518762
C -4.372672 -1.364312 -1.004454
O -3.061460 0.569378 -0.876868
O -1.271519 -1.009278 2.329420
H -0.281547 2.561447 1.145830
H -0.159668 1.328356 2.438515
H 1.167830 2.442718 -0.824267
H 3.297876 1.567673 -1.835176
H 4.649279 -2.431079 -0.535351
H 6.178455 -1.716285 -1.135410
H 5.629987 -1.388807 0.537859
H 3.432402 -1.498097 1.179523
H 1.328244 -0.620193 2.157500
H -1.889460 -2.533058 -1.365865
H -2.096174 -1.222896 -2.577516
H -0.923668 -1.033649 -1.241092
H -5.113417 -0.880953 -0.354628
H -4.608194 -1.139675 -2.053268
H -4.397067 -2.449575 -0.838274