12

C -2.108193 -0.024439 -0.000005
C -0.615743 -0.071277 -0.000002
N 0.166133 1.048774 -0.000008
H -0.163412 2.004566 0.000007
C 1.478727 0.641488 0.000035
C 1.423005 -0.728761 -0.000002
N 0.121007 -1.154687 -0.000019
H -2.498988 0.489083 -0.890864
H -2.477959 -1.055302 -0.000076
H -2.498998 0.488961 0.890919
H 2.308020 1.341328 0.000058
H 2.254572 -1.429310 -0.000006