11

N -1.866694 0.020535 -0.272790
C -0.719525 -0.721825 0.189945
C 0.531054 0.136241 0.031417
N 1.695268 -0.550558 -0.100382
O 0.479854 1.345018 0.078388
H -2.717499 -0.296291 0.181671
H -1.725089 1.000826 -0.029562
H -0.742159 -1.004392 1.263649
H -0.596545 -1.660377 -0.376933
H 1.717349 -1.552981 -0.211622
H 2.555916 -0.023260 -0.170274