52

C -3.817864 -2.771734 -0.860981
C -2.631779 -2.032688 -0.247009
C -1.587399 -3.064582 0.206104
O -2.078564 -1.177802 -1.210827
B -1.366510 -0.097444 -0.492969
C 0.228699 -0.424288 -0.287475
C 0.924288 -0.009290 0.859684
C 2.296164 -0.204650 0.998704
C 3.011103 -0.837088 -0.021780
C 4.473393 -1.099015 0.140224
F 4.728760 -2.273721 0.745355
F 5.119414 -1.144138 -1.034948
F 5.084245 -0.165187 0.883777
C 2.347483 -1.268949 -1.172542
C 0.975405 -1.058699 -1.292552
C -1.473254 1.321625 -1.357157
C -2.926978 1.678312 -1.662404
C -0.741084 2.416982 -0.637974
C 0.516912 2.866494 -1.067485
C 1.230981 3.831322 -0.358395
C 0.700393 4.382726 0.806935
C -0.547282 3.944579 1.254552
C -1.254139 2.976054 0.545359
O -2.060161 -0.024626 0.823019
C -3.018845 -1.044714 0.918435
C -4.416258 -0.445709 0.711254
C -2.955907 -1.668620 2.312601
H -4.358648 -3.362974 -0.104370
H -4.515620 -2.065336 -1.328964
H -3.453390 -3.456646 -1.641496
H -1.182859 -3.560839 -0.688804
H -0.751113 -2.578473 0.726221
H -2.022960 -3.827768 0.869989
H 0.361592 0.490263 1.653547
H 2.823140 0.141519 1.890606
H 2.911785 -1.760479 -1.968205
H 0.451433 -1.398331 -2.191410
H -0.948993 1.136055 -2.311754
H -3.486606 1.862216 -0.732739
H -3.018944 2.579465 -2.293200
H -3.412721 0.834863 -2.175769
H 0.949409 2.427543 -1.970529
H 2.211916 4.151414 -0.717555
H 1.256205 5.138867 1.365390
H -0.969551 4.353845 2.175728
H -2.204438 2.600686 0.929585
H -4.519288 -0.064483 -0.312593
H -5.217617 -1.176891 0.903339
H -4.534479 0.399593 1.406283
H -3.266655 -0.920506 3.057771
H -3.624668 -2.541050 2.396977
H -1.930534 -1.976903 2.553027