25

C -3.217396 -0.266471 0.467250
C -2.258859 0.391377 -0.190991
C -0.799308 0.154084 -0.105234
C 0.049657 1.283502 -0.050788
C -0.526231 2.676928 -0.065078
C 1.429250 1.108512 0.029639
C 2.008461 -0.163205 0.043413
C 3.500385 -0.332603 0.157780
C 1.159822 -1.265621 -0.034848
C -0.232003 -1.137184 -0.105571
C -1.058397 -2.395767 -0.207560
H -4.268032 -0.000570 0.336951
H -2.989372 -1.072241 1.167478
H -2.565666 1.216835 -0.842450
H -1.278013 2.808162 0.726861
H 0.262639 3.425842 0.080102
H -1.024558 2.896471 -1.022564
H 2.073030 1.991085 0.078809
H 3.818571 -0.284687 1.211009
H 3.824214 -1.302619 -0.242562
H 4.034122 0.460890 -0.383268
H 1.592881 -2.269607 -0.050603
H -1.432024 -2.717013 0.776916
H -1.932241 -2.257564 -0.857568
H -0.447836 -3.216304 -0.607180