29

C 3.124822 0.000000 0.349950
C 1.887574 0.000000 1.241771
Pb 0.000000 0.000000 0.000000
C 0.000000 1.887574 -1.241771
C 0.000000 3.124822 -0.349950
C 0.000000 -1.887574 -1.241771
C 0.000000 -3.124822 -0.349950
C -1.887574 0.000000 1.241771
C -3.124822 0.000000 0.349950
H 4.057638 0.000000 0.936667
H 3.152338 -0.886206 -0.303472
H 3.152338 0.886206 -0.303472
H 1.861214 -0.884993 1.893904
H 1.861214 0.884993 1.893904
H 0.884993 1.861214 -1.893904
H -0.884993 1.861214 -1.893904
H 0.000000 4.057638 -0.936667
H -0.886206 3.152338 0.303472
H 0.886206 3.152338 0.303472
H -0.884993 -1.861214 -1.893904
H 0.884993 -1.861214 -1.893904
H 0.886206 -3.152338 0.303472
H -0.886206 -3.152338 0.303472
H 0.000000 -4.057638 -0.936667
H -1.861214 -0.884993 1.893904
H -1.861214 0.884993 1.893904
H -3.152338 -0.886206 -0.303472
H -4.057638 0.000000 0.936667
H -3.152338 0.886206 -0.303472