28

N 2.036579 0.209759 -0.080693
C 0.698772 0.452243 -0.095349
C -0.278622 -0.478278 0.020387
C -1.716931 -0.198249 0.020491
C -2.620623 -1.274479 -0.020387
C -3.997592 -1.069686 -0.027896
C -4.517348 0.223070 0.005899
C -3.636110 1.304778 0.052820
C -2.260655 1.099398 0.064532
C 3.056161 1.234710 -0.223367
C 4.307008 0.543103 0.317497
C 4.095169 -0.911004 -0.114562
C 2.589568 -1.120651 0.077468
H 0.443019 1.509809 -0.212798
H 0.000592 -1.530394 0.110800
H -2.225712 -2.292581 -0.051389
H -4.669946 -1.928970 -0.061003
H -5.595523 0.387901 0.000595
H -4.026046 2.323833 0.088491
H -1.599677 1.966262 0.120002
H 3.196295 1.529490 -1.281064
H 2.787620 2.138896 0.344043
H 5.237949 0.980687 -0.065761
H 4.321215 0.611463 1.415919
H 4.353551 -1.024059 -1.178396
H 4.698896 -1.628222 0.455901
H 2.344832 -1.523866 1.078665
H 2.164100 -1.818290 -0.664350