14

C 0.000000 2.492061 0.859741
C 0.000000 1.269309 -0.086776
C 0.000000 0.000000 0.559628
H 0.000000 0.000000 1.651908
C 0.000000 -1.269309 -0.086776
C 0.000000 -2.492061 0.859741
O 0.000000 -1.520427 -1.291863
O 0.000000 1.520427 -1.291863
H 0.000000 2.236846 1.929143
H 0.883739 3.108628 0.631568
H -0.883739 3.108628 0.631568
H 0.000000 -2.236846 1.929143
H -0.883739 -3.108628 0.631568
H 0.883739 -3.108628 0.631568