37

C -0.557006 1.442640 -0.228316
H -0.477764 1.252786 -1.320838
C -0.038346 0.202363 0.518243
C -0.916764 -1.001905 0.206207
C -0.663325 -1.826700 -0.895373
C -1.512838 -2.888341 -1.202422
C -2.630046 -3.145528 -0.409332
C -2.891968 -2.331388 0.691927
C -2.042360 -1.268317 0.995787
C 1.433138 -0.087327 0.285625
C 2.175383 -0.690294 1.308261
C 3.517474 -1.016254 1.130492
C 4.148459 -0.742768 -0.082862
C 3.424157 -0.141777 -1.109878
C 2.079436 0.182291 -0.927177
N -1.922450 1.755809 0.174189
C -2.190120 3.184345 -0.014310
C -0.822367 3.804119 -0.355871
C 0.177532 2.741237 0.102122
H -0.172232 0.430377 1.587424
H 0.218307 -1.644005 -1.513196
H -1.294903 -3.522559 -2.063397
H -3.291703 -3.980342 -0.645622
H -3.761355 -2.527252 1.322116
H -2.254817 -0.621386 1.849573
H 1.684035 -0.910271 2.259180
H 4.073632 -1.486140 1.943420
H 5.199915 -0.995590 -0.226706
H 3.907542 0.077231 -2.063534
H 1.532101 0.652955 -1.746211
H -2.611473 1.147965 -0.256306
H -2.923535 3.377126 -0.814934
H -2.605210 3.620667 0.909503
H -0.731811 3.944505 -1.443560
H -0.665808 4.782460 0.117389
H 0.331605 2.792544 1.192299
H 1.157987 2.819900 -0.384648