43

C -0.430272 5.575633 -1.122519
C -0.336111 4.200851 -0.515026
C 0.472062 3.967659 0.605454
C 0.535546 2.708141 1.192315
C -1.068910 3.127820 -1.030092
C -0.999155 1.859055 -0.453525
C -0.190967 1.631149 0.664671
P 0.000205 -0.001214 1.500677
C -1.318154 -0.982074 0.664380
C -2.613029 -0.894844 1.195170
C -3.672542 -1.578742 0.608182
C -3.471834 -2.391061 -0.515592
C -4.615801 -3.159139 -1.123329
C -2.177136 -2.485814 -1.033770
C -1.112860 -1.791838 -0.457017
C 1.509268 -0.651265 0.663703
C 2.086878 -1.811589 1.198303
C 3.209794 -2.385520 0.611083
C 3.807683 -1.808571 -0.516897
C 5.046097 -2.412560 -1.124760
C 3.236323 -0.644725 -1.039342
C 2.102599 -0.071657 -0.462250
H 0.554415 6.061951 -1.159327
H -0.834000 5.534162 -2.142649
H -1.093519 6.221209 -0.526221
H 1.054464 4.790034 1.028106
H 1.164353 2.553342 2.073275
H -1.705116 3.284603 -1.904413
H -1.578205 1.039602 -0.884693
H -2.792166 -0.276123 2.078637
H -4.675140 -1.488203 1.033231
H -5.528443 -2.548281 -1.161882
H -4.377402 -3.489585 -2.142802
H -4.845161 -4.055165 -0.526065
H -1.995935 -3.111813 -1.910732
H -0.114424 -1.881006 -0.890323
H 1.644774 -2.273630 2.085125
H 3.637498 -3.295239 1.039544
H 4.983231 -3.509365 -1.147746
H 5.202921 -2.053447 -2.150349
H 5.938448 -2.146750 -0.537126
H 3.683654 -0.177385 -1.919838
H 1.675798 0.833848 -0.898772