28

O 2.255446 -1.654499 -0.180999
C 2.067700 -0.468120 -0.044653
C 0.765584 0.193956 0.071102
C -0.339595 -0.587619 0.021563
N -1.642402 -0.210994 0.052560
C -2.018067 1.171049 0.283098
C -3.379825 1.447292 -0.341971
O -4.342989 0.518112 0.083808
C -3.984097 -0.790943 -0.278368
C -2.671145 -1.185679 0.378688
O 3.080619 0.416422 0.024017
C 4.390474 -0.131520 -0.068193
C 5.376878 1.008909 0.033473
H 0.754167 1.274639 0.197164
H -0.173275 -1.666526 -0.074030
H -2.047362 1.385526 1.368717
H -1.268255 1.829149 -0.175299
H -3.735158 2.444555 -0.051574
H -3.284181 1.414409 -1.444659
H -4.793197 -1.456702 0.049378
H -3.882603 -0.869073 -1.378296
H -2.346528 -2.176152 0.030721
H -2.819799 -1.235375 1.474331
H 4.530579 -0.871354 0.734838
H 4.487752 -0.675974 -1.020093
H 6.405166 0.629482 -0.036705
H 5.215216 1.732477 -0.777110
H 5.262249 1.533648 0.991660