13

H -0.186211 1.455433 1.073337
N -0.183860 1.414157 0.053419
C -0.001511 0.029955 -0.372273
C 1.371752 -0.447181 0.083855
C -1.104816 -0.914107 0.109492
H -1.097342 1.754724 -0.242814
H -0.010262 0.033778 -1.475710
H 1.421466 -0.464400 1.185224
H 1.583453 -1.463434 -0.277316
H 2.151719 0.233731 -0.281339
H -2.093797 -0.568623 -0.228077
H -0.958042 -1.938461 -0.264746
H -1.116519 -0.953851 1.211063