20

C 2.940959 -0.051438 -0.000081
C 1.438737 -0.072932 -0.000052
C 0.734699 -1.208530 -0.000005
C -0.765046 -1.274186 0.000246
H -1.115556 -1.853694 -0.874447
H -1.115222 -1.853113 0.875477
C -1.438737 0.072933 -0.000003
C -2.940959 0.051436 -0.000057
C -0.734700 1.208530 -0.000061
C 0.765047 1.274186 -0.000024
H 3.360589 -1.066129 -0.000760
H 3.322861 0.484210 -0.884283
H 3.322875 0.483011 0.884844
H 1.271519 -2.162663 -0.000118
H -3.322910 -0.483187 0.884747
H -3.360590 1.066127 -0.000563
H -3.322821 -0.484039 -0.884381
H -1.271516 2.162665 -0.000194
H 1.115396 1.853438 0.874911
H 1.115379 1.853372 -0.875013