39

C -3.209596 -0.689657 -1.623484
C -1.919085 -1.000551 -1.479544
C -0.766110 -0.049968 -1.584151
Si 0.204451 0.093465 0.051223
C 1.690858 1.267716 -0.168279
C 2.652070 0.824966 -1.275481
C 1.263827 2.725145 -0.374159
C -0.917634 0.795988 1.429450
C -1.933572 1.808890 0.883162
C -1.644234 -0.288605 2.233297
C 0.796460 -1.653569 0.540879
C 1.292061 -2.514612 -0.625805
C 1.843485 -1.580567 1.657728
H -3.524812 0.328898 -1.868294
H -3.990946 -1.442666 -1.506437
H -1.665902 -2.041522 -1.240537
H -0.050418 -0.410789 -2.344085
H -1.112940 0.943883 -1.909449
H 2.232293 1.213175 0.794325
H 2.145598 0.775061 -2.253120
H 3.486177 1.537728 -1.379065
H 3.088031 -0.164188 -1.075412
H 0.673788 3.104976 0.472411
H 2.144742 3.378378 -0.483467
H 0.657188 2.843581 -1.287343
H -0.235613 1.330223 2.117279
H -2.485008 2.292913 1.705404
H -1.465299 2.603886 0.284603
H -2.672074 1.302110 0.243810
H -0.946268 -0.973695 2.736993
H -2.283858 0.163135 3.008812
H -2.296135 -0.892209 1.581190
H -0.103476 -2.145820 0.951137
H 2.180737 -2.080351 -1.107610
H 1.572626 -3.521450 -0.276061
H 0.525894 -2.638788 -1.405516
H 1.498052 -0.978916 2.513873
H 2.097037 -2.583648 2.036632
H 2.777096 -1.123473 1.291128