20

N -3.645093 -0.080522 -0.199449
C -2.236552 -0.016716 -0.550594
C -1.372651 0.000206 0.711726
C 0.099962 0.003785 0.392254
C 0.791539 1.204525 0.197115
C 2.140875 1.206084 -0.152730
C 2.822426 0.000712 -0.315456
C 2.144906 -1.203238 -0.125418
C 0.795640 -1.198850 0.223583
H -3.928785 0.781399 0.264001
H -4.219811 -0.158268 -1.035381
H -1.979317 -0.914531 -1.135199
H -1.954313 0.852482 -1.179541
H -1.627161 0.892590 1.307563
H -1.638602 -0.878014 1.318235
H 0.263638 2.152785 0.327540
H 2.663141 2.153574 -0.296070
H 3.879525 -0.000521 -0.585903
H 2.670696 -2.151849 -0.246735
H 0.269762 -2.145031 0.374753