21

C -0.863435 2.448990 -0.168980
C -0.885508 0.948725 -0.063897
C 0.321129 0.229997 -0.142899
N 1.509240 0.959799 -0.373799
C 2.367848 1.050533 0.547588
C 0.343489 -1.175229 -0.083707
C 1.634754 -1.939120 -0.235385
C -0.871101 -1.847143 0.084415
C -2.071636 -1.152070 0.193183
C -2.073024 0.238985 0.116853
H -0.279612 2.762795 -1.046866
H -1.880594 2.852893 -0.249292
H -0.381520 2.905206 0.709682
H 2.261502 -1.876986 0.667039
H 1.431351 -3.000880 -0.424579
H 2.230354 -1.542972 -1.070541
H -0.867324 -2.938649 0.122956
H -3.008714 -1.694395 0.325387
H -3.012979 0.790774 0.187708
H 2.229625 0.596918 1.546003
H 3.298125 1.604684 0.366072