26

O 1.207881 1.967308 -0.108784
C 1.266662 0.734146 -0.052847
C 2.627923 0.078648 -0.023424
C 3.716387 0.891636 0.312187
C 5.004673 0.366577 0.357582
C 5.223049 -0.977799 0.054819
C 4.147052 -1.791040 -0.298357
C 2.856606 -1.266237 -0.336901
C 0.145256 -0.140283 0.014143
H 0.267261 -1.209169 0.144877
N -1.165480 0.276098 -0.016504
C -1.537246 1.594125 -0.137204
C -2.872916 1.952784 -0.169812
C -3.891922 1.010526 -0.081005
C -3.491669 -0.320703 0.043921
Cl -4.666540 -1.584815 0.155690
C -2.158419 -0.667728 0.075153
H 3.519116 1.942207 0.528581
H 5.844742 1.008617 0.627609
H 6.232845 -1.390190 0.087603
H 4.313714 -2.839231 -0.551538
H 2.032470 -1.911710 -0.643078
H -0.707555 2.294473 -0.198117
H -3.105637 3.013052 -0.268587
H -4.946810 1.277050 -0.106083
H -1.836262 -1.702307 0.168280