15

O -2.973812 -1.555990 0.006057
C -2.130201 -0.638099 -0.000577
C -2.475170 0.772069 0.016435
C -1.529069 1.782606 0.004275
C -0.154281 1.511821 -0.026251
C 0.224828 0.161190 -0.042608
C 1.686391 -0.159452 -0.002266
F 2.185488 -0.163872 1.250267
F 1.984570 -1.361578 -0.516775
F 2.432414 0.735155 -0.678311
C -0.697259 -0.873681 -0.031515
H -3.543477 1.005399 0.037417
H -1.864856 2.825402 0.013692
H 0.592129 2.305379 -0.049152
H -0.366977 -1.914333 -0.052005