20

C -3.733473 0.067822 0.000278
O -2.637965 -0.802196 -0.000136
C -1.385137 -0.271220 -0.000060
C -1.137010 1.120836 -0.000007
C 0.162194 1.612377 0.000024
C 1.215743 0.697132 -0.000007
C 0.984337 -0.703548 -0.000072
C 2.276457 -1.335172 -0.000141
C 3.207454 -0.330759 0.000080
N 2.579419 0.890400 0.000013
C -0.333928 -1.181114 -0.000093
H -4.633489 -0.557838 0.000351
H -3.745916 0.710847 0.897196
H -3.746319 0.711194 -0.896387
H -1.964785 1.827681 -0.000008
H 0.343050 2.688313 0.000061
H 2.484272 -2.400905 -0.000231
H 4.292852 -0.392808 0.000161
H 3.042375 1.786910 -0.000011
H -0.564076 -2.246753 -0.000150