28

C -2.067968 -0.603312 1.328271
C -1.491364 -0.232294 0.179917
C -1.426520 1.238213 -0.180477
C -0.192429 1.774544 -0.916054
C 1.199104 1.610567 -0.250179
C 1.319056 0.857175 1.086486
C 1.372554 -0.692605 1.113253
C 1.514130 -1.467328 -0.202090
C 0.436931 -1.274373 -1.277700
C -1.031073 -1.277994 -0.817272
H -2.439530 0.135299 2.043357
H -2.185955 -1.657833 1.590094
H -1.598753 1.820651 0.738067
H -2.293029 1.449705 -0.832843
H -0.374961 2.848798 -1.070173
H -0.179496 1.352077 -1.930340
H 1.591164 2.621315 -0.062917
H 1.903780 1.167818 -0.971947
H 0.512413 1.192790 1.757643
H 2.247333 1.225443 1.548799
H 0.488547 -1.073340 1.637409
H 2.228751 -0.986781 1.740244
H 1.546829 -2.535770 0.069713
H 2.493420 -1.253396 -0.663202
H 0.542887 -2.095490 -2.004594
H 0.646853 -0.366833 -1.853110
H -1.269338 -2.268885 -0.397907
H -1.655431 -1.171129 -1.723227