21

C 3.468095 -0.000252 0.143015
N 2.297434 0.000052 -0.700960
C 1.477747 -1.203276 -0.552518
C 0.616502 -1.196675 0.715051
N -0.207983 -0.000071 0.708247
C 0.616518 1.196519 0.715455
C 1.478032 1.203523 -0.551956
C -1.488803 0.000006 0.150547
S -2.228716 -1.502887 -0.174772
S -2.228460 1.502990 -0.175046
H 4.079628 -0.890195 -0.076537
H 3.267818 0.000270 1.236143
H 4.080592 0.888872 -0.077222
H 2.138197 -2.086291 -0.588603
H 0.779167 -1.263814 -1.403977
H 1.250842 -1.184665 1.620971
H -0.042494 -2.071679 0.743363
H 1.250617 1.184264 1.621531
H -0.042466 2.071537 0.743773
H 2.138717 2.086390 -0.587530
H 0.779498 1.264723 -1.403397