16

O 3.235266 -0.323385 0.000032
C 1.995303 -0.143965 -0.000209
C 1.375657 1.169773 -0.000034
C 0.004698 1.365709 0.000016
C -0.887092 0.285666 -0.000010
O -2.245724 0.592072 0.000052
C -3.123748 -0.476423 0.000149
C -0.355812 -1.007816 -0.000035
C 1.023163 -1.213763 -0.000087
H 2.055515 2.026914 0.000030
H -0.420116 2.374575 0.000089
H -3.003231 -1.122780 -0.892129
H -3.003019 -1.122783 0.892395
H -4.145073 -0.067568 0.000265
H -1.014809 -1.880416 -0.000002
H 1.421378 -2.232519 -0.000058