48

C 0.695150 -4.092388 0.370318
C -0.266219 -3.262189 0.788721
C -0.061069 -1.996238 1.546334
Sn -0.035848 -0.338448 0.109564
C 0.005473 1.587980 1.118223
C 0.007439 2.758081 0.133257
C 0.057395 4.127641 0.809000
C 0.052632 5.284951 -0.182492
C 1.774416 -0.576889 -1.061766
C 3.037494 -0.277025 -0.252857
C 4.332199 -0.506851 -1.030787
C 5.582231 -0.203002 -0.213190
C -1.845217 -0.473160 -1.083800
C -3.112139 -0.400453 -0.229637
C -4.404713 -0.453173 -1.043289
C -5.657847 -0.399354 -0.176984
H 0.462012 -4.980840 -0.218507
H 1.746763 -3.909913 0.612586
H -1.303158 -3.495172 0.513994
H -0.860669 -1.823470 2.280992
H 0.902426 -1.994728 2.078072
H -0.863522 1.657150 1.793178
H 0.899981 1.628616 1.761647
H 0.868300 2.671931 -0.555268
H -0.891487 2.712889 -0.508505
H -0.801064 4.216794 1.495715
H 0.959048 4.178363 1.442225
H 0.092698 6.257507 0.327724
H 0.917350 5.226348 -0.860909
H -0.856101 5.268552 -0.803231
H 1.794948 -1.615213 -1.432038
H 1.725059 0.072161 -1.951175
H 3.018919 0.768616 0.105286
H 3.060259 -0.902249 0.658875
H 4.355978 -1.552857 -1.379709
H 4.317061 0.116793 -1.940407
H 6.499885 -0.381257 -0.790976
H 5.591758 0.846883 0.117233
H 5.625299 -0.833820 0.687752
H -1.839160 0.341813 -1.826333
H -1.821598 -1.414813 -1.656180
H -3.121324 -1.228552 0.502775
H -3.111308 0.527222 0.371828
H -4.407375 0.384555 -1.760565
H -4.406012 -1.373592 -1.650919
H -5.690691 -1.249465 0.521130
H -5.681802 0.522816 0.423382
H -6.573416 -0.428277 -0.784161