35

H -0.001481 -0.000976 -2.647641
Sn -0.001313 -0.000514 -0.919941
C 1.164740 -1.644000 -0.156677
C 2.195638 -1.408494 0.763645
C 2.944158 -2.464887 1.285813
C 2.668909 -3.774563 0.895936
C 1.644562 -4.026165 -0.017045
C 0.900612 -2.967735 -0.538905
C 0.840794 1.830445 -0.157312
C 0.127264 2.602554 0.769982
C 0.671695 3.776824 1.293108
C 1.941440 4.194032 0.897101
C 2.665550 3.435726 -0.023055
C 2.117171 2.264321 -0.545657
C -2.007685 -0.186875 -0.156302
C -3.021679 0.701859 -0.543648
C -4.310554 0.589835 -0.021999
C -4.605359 -0.417926 0.896477
C -3.609026 -1.309088 1.291836
C -2.319574 -1.192232 0.769630
H 2.422969 -0.386456 1.081164
H 3.744101 -2.263497 2.000508
H 3.252865 -4.601343 1.303826
H 1.425484 -5.050106 -0.325033
H 0.102721 -3.187715 -1.254441
H -0.869421 2.287296 1.092948
H 0.102182 4.366455 2.013700
H 2.368510 5.111254 1.306065
H 3.660227 3.758472 -0.335708
H 2.702208 1.685246 -1.266365
H -2.812542 1.499163 -1.263083
H -5.087417 1.290121 -0.334049
H -5.613491 -0.507723 1.304582
H -3.835068 -2.098350 2.011033
H -1.548130 -1.897931 1.091965