34

O -2.096870 2.477671 -0.215598
C -1.771838 1.343526 0.049603
C -0.387846 0.880927 0.483780
H -0.069400 1.484858 1.350240
C 0.603794 1.131973 -0.671578
C 1.956127 0.531109 -0.395316
C 2.294104 -0.728392 -0.903546
C 3.520512 -1.319517 -0.597464
C 4.428860 -0.655401 0.223628
C 4.104035 0.601494 0.735739
C 2.877824 1.186907 0.430145
N -0.603731 -0.501649 0.855803
C -1.854947 -1.009633 0.289117
C -1.629791 -1.866048 -0.964339
C -2.622447 -1.805053 1.344300
N -2.550855 0.230314 -0.044908
C -3.917146 0.283861 -0.494442
H 0.190371 0.709467 -1.600857
H 0.674209 2.220502 -0.813165
H 1.590776 -1.246276 -1.561338
H 3.768531 -2.299592 -1.008368
H 5.390296 -1.113292 0.460607
H 4.812867 1.130284 1.374969
H 2.628883 2.172301 0.832008
H 0.192545 -1.106692 0.675692
H -1.013411 -2.742457 -0.712488
H -2.580431 -2.235952 -1.376031
H -1.116286 -1.281237 -1.740791
H -2.813053 -1.163560 2.214611
H -3.575097 -2.191551 0.952156
H -2.012099 -2.659649 1.668812
H -4.613564 -0.067241 0.282356
H -4.138975 1.333689 -0.724159
H -4.066558 -0.320139 -1.403501