21

C 2.691388 1.462298 0.000121
C 1.383394 0.714820 0.000094
C 0.184068 1.417768 0.000044
C -1.007385 0.685813 -0.000021
N -2.338341 1.043327 -0.000194
H -2.714092 1.980859 -0.000272
C -3.059070 -0.124429 0.000542
N -2.319103 -1.192372 -0.000401
C -1.019252 -0.722335 -0.000088
C 0.196236 -1.420823 -0.000076
C 1.390234 -0.712339 0.000025
C 2.706516 -1.446319 -0.000032
H 3.297685 1.210049 0.883845
H 3.297674 1.210139 -0.883639
H 2.527731 2.547511 0.000175
H 0.184136 2.509338 0.000038
H -4.148919 -0.113554 0.000702
H 0.189897 -2.511973 -0.000213
H 3.311309 -1.191698 -0.884277
H 3.311243 -1.191925 0.884324
H 2.548662 -2.532151 -0.000175