22

Cl -1.787829 -0.000043 0.000000
C -0.022503 -0.000070 0.000000
C 0.664498 -0.000075 1.248651
O -0.200768 0.000008 2.333628
C 0.428062 0.000066 3.587046
C -0.659382 0.000058 4.642557
O 1.865132 -0.000018 1.456858
C 0.664498 -0.000075 -1.248651
O -0.200768 0.000008 -2.333628
C 0.428062 0.000066 -3.587046
C -0.659382 0.000058 -4.642557
O 1.865132 -0.000018 -1.456858
H 1.086700 -0.879638 3.689093
H 1.086638 0.879825 3.689047
H -0.227072 0.000112 5.654334
H -1.298134 0.887779 4.530676
H -1.298056 -0.887727 4.530737
H 1.086638 0.879825 -3.689047
H 1.086700 -0.879638 -3.689093
H -0.227072 0.000112 -5.654334
H -1.298056 -0.887727 -4.530737
H -1.298134 0.887779 -4.530676