25

C 4.360282 -0.522851 -0.001966
O 3.460219 0.527133 0.231606
C 2.139987 0.289943 0.074340
C 1.281027 1.370226 0.317695
C -0.090896 1.213069 0.178600
C -0.659689 -0.015048 -0.203509
C 0.220025 -1.077256 -0.443397
C 1.603144 -0.943917 -0.310619
Si -2.519447 -0.252800 -0.361194
H -2.810424 -0.864262 -1.692253
C -3.130849 -1.427001 0.977667
C -3.391760 1.408149 -0.227087
H 5.364068 -0.123557 0.179884
H 4.179987 -1.369711 0.680906
H 4.299131 -0.884374 -1.041915
H 1.723660 2.321916 0.613377
H -0.734744 2.075040 0.372399
H -0.173509 -2.051202 -0.750411
H 2.246931 -1.799406 -0.510383
H -2.937609 -1.003225 1.974354
H -4.210827 -1.613248 0.882891
H -2.611248 -2.394526 0.916077
H -4.476498 1.285440 -0.360134
H -3.223575 1.860714 0.761967
H -3.032478 2.110650 -0.993230