18

F 0.084322 -2.852885 0.000000
C 0.668746 -1.605298 0.000000
S 0.039729 -0.739843 -1.433782
C 0.000025 0.900549 -0.690689
C 0.000025 0.900549 0.690689
C -0.014275 2.088946 1.411101
C -0.074498 3.287269 0.700331
C -0.074498 3.287269 -0.700331
C -0.014275 2.088946 -1.411101
S 0.039729 -0.739843 1.433782
O -1.316138 -1.152265 1.802540
O 1.014451 -0.656034 2.524463
O 1.014451 -0.656034 -2.524463
O -1.316138 -1.152265 -1.802540
H 0.030992 2.061080 2.501217
H -0.106353 4.236084 1.239477
H -0.106353 4.236084 -1.239477
H 0.030992 2.061080 -2.501217