11

C -1.751534 2.109949 0.000000
N -1.311971 0.741838 0.000000
C -0.011792 0.643329 0.000000
O 0.891339 1.500802 0.000000
C 0.430847 -0.840812 0.000000
F 1.765141 -0.980160 0.000000
F -0.011792 -1.521464 1.074514
F -0.011792 -1.521464 -1.074514
H -1.385739 2.684737 0.877872
H -1.385739 2.684737 -0.877872
H -2.854579 2.164241 0.000000