13

C -2.151846 0.005670 0.000000
C -0.667076 0.111139 -0.000005
N 0.021882 1.172640 -0.000044
C 1.424511 0.767368 0.000010
C 1.384894 -0.780423 -0.000020
O -0.011798 -1.078739 0.000053
H -2.482228 -0.553286 -0.886262
H -2.482240 -0.553027 0.886420
H -2.589903 1.008028 -0.000144
H 1.934200 1.177671 -0.884405
H 1.934111 1.177640 0.884492
H 1.842134 -1.229031 -0.893002
H 1.842240 -1.229082 0.892881