21

C 3.218307 -0.292773 1.574422
Si 2.517646 0.396973 -0.028547
H 2.829769 1.851510 -0.138812
C 3.234053 -0.528992 -1.499480
C 0.638131 0.237964 -0.023769
C -0.196537 1.362924 -0.080322
C -1.585633 1.244061 -0.069304
C -2.155308 -0.024410 -0.000777
Cl -3.885987 -0.186320 0.016832
C -1.358311 -1.166892 0.055297
C 0.026727 -1.024024 0.043140
H 4.314904 -0.209777 1.595146
H 2.814279 0.246160 2.443183
H 2.956251 -1.356156 1.683287
H 2.978769 -1.598201 -1.445074
H 2.836007 -0.133108 -2.444727
H 4.330454 -0.443988 -1.523159
H 0.241781 2.362631 -0.135144
H -2.229588 2.122619 -0.112323
H -1.826661 -2.149888 0.108719
H 0.640198 -1.929133 0.087172