18

C -2.525516 -1.029604 0.008319
C -1.222948 -0.271262 -0.012876
C -0.000023 -0.949358 -0.000002
C 1.222910 -0.271326 0.012868
C 2.525505 -1.029623 -0.008315
C 1.208289 1.127307 0.016210
C 0.000034 1.820376 0.000004
C -1.208270 1.127348 -0.016213
H -2.883059 -1.162490 1.041362
H -3.307707 -0.491993 -0.544868
H -2.412914 -2.028231 -0.435009
H -0.000051 -2.043296 -0.000013
H 2.884180 -1.160594 -1.041206
H 3.307089 -0.492973 0.546672
H 2.412476 -2.029041 0.433098
H 2.152489 1.676734 0.029916
H 0.000053 2.911907 0.000010
H -2.152440 1.676822 -0.029923