38

N -2.579997 0.449144 3.261435
C -1.507089 0.200013 2.884443
C -0.236975 -0.097867 2.355430
P 0.009101 -0.032017 0.675008
C -0.131437 1.609629 -0.129519
C 0.671833 1.984468 -1.212369
C 0.505951 3.238374 -1.800588
C -0.459827 4.116118 -1.309865
C -1.257937 3.745004 -0.227025
C -1.095122 2.495813 0.368606
C 1.691761 -0.604327 0.312197
C 1.926040 -1.786425 -0.394751
C 3.236462 -2.204573 -0.628144
C 4.307168 -1.447388 -0.157096
C 4.073498 -0.266142 0.548945
C 2.768601 0.158477 0.783137
C -1.165530 -1.074929 -0.251476
C -1.783526 -2.134548 0.420020
C -2.659243 -2.972874 -0.268877
C -2.910986 -2.759508 -1.623287
C -2.295463 -1.700885 -2.293445
C -1.428416 -0.853282 -1.608836
H 0.633360 -0.204473 3.000179
H 1.432965 1.299765 -1.594832
H 1.135267 3.530349 -2.642673
H -0.588356 5.097076 -1.770343
H -2.009270 4.433875 0.161420
H -1.715032 2.211198 1.223476
H 1.087054 -2.381710 -0.761076
H 3.419325 -3.128254 -1.178734
H 5.330649 -1.777619 -0.341296
H 4.911307 0.328163 0.916047
H 2.582909 1.087966 1.327005
H -1.580977 -2.282813 1.482889
H -3.151606 -3.791499 0.257740
H -3.597968 -3.415750 -2.160043
H -2.499974 -1.528514 -3.351006
H -0.964756 -0.012413 -2.128905