13

C 1.104807 -0.914117 0.109491
C 0.001512 0.029958 -0.372271
C -1.371756 -0.447170 0.083854
N 0.183871 1.414155 0.053420
H 2.093792 -0.568641 -0.228075
H 1.116510 -0.953868 1.211062
H 0.958024 -1.938468 -0.264753
H 0.010264 0.033780 -1.475708
H -1.421472 -0.464389 1.185224
H -2.151719 0.233746 -0.281338
H -1.583463 -1.463422 -0.277317
H 0.186238 1.455431 1.073339
H 1.097349 1.754722 -0.242825