13

C -1.925934 0.000000 -0.104422
C -0.612220 0.000000 0.090319
C 0.444056 1.087115 0.136917
C 1.484574 0.000000 -0.237093
C 0.444056 -1.087115 0.136917
H -2.483391 0.935615 -0.187919
H -2.483391 -0.935615 -0.187918
H 0.320068 1.942625 -0.541581
H 0.595151 1.464515 1.160392
H 1.697123 0.000000 -1.314134
H 2.432033 0.000000 0.316520
H 0.595150 -1.464516 1.160392
H 0.320067 -1.942624 -0.541582