18

C 3.675927 -0.049642 0.000052
N 2.284850 -0.418019 0.000026
C 1.415366 0.500417 -0.000059
C -0.037173 0.225407 -0.000034
C -0.946317 1.287285 -0.000002
C -2.318858 1.040889 0.000027
C -2.788030 -0.271201 0.000035
C -1.883189 -1.336701 -0.000004
C -0.514885 -1.091891 -0.000044
H 4.169010 -0.486259 0.881704
H 4.169064 -0.486190 -0.881622
H 3.845689 1.043450 0.000022
H 1.701065 1.572702 -0.000154
H -0.573362 2.314552 -0.000003
H -3.022419 1.874629 0.000054
H -3.861611 -0.466560 0.000062
H -2.252084 -2.363670 -0.000004
H 0.213651 -1.903901 -0.000074