20

C -3.150208 -0.789691 0.000044
C -1.839127 -1.650412 -0.000001
N -0.840685 -0.599328 0.000088
C -1.489540 0.625937 0.000023
N -2.755640 0.624259 -0.000022
S -0.311738 1.940311 -0.000011
C 1.014614 0.761703 -0.000013
C 2.376490 1.021022 -0.000058
C 3.268837 -0.057116 -0.000062
C 2.792282 -1.367219 -0.000023
C 1.421523 -1.638256 0.000025
C 0.531726 -0.565661 0.000033
H -3.769219 -1.002418 -0.883863
H -3.769107 -1.002356 0.884047
H -1.745569 -2.287907 0.893087
H -1.745540 -2.287767 -0.893189
H 2.743595 2.048304 -0.000093
H 4.342212 0.133066 -0.000099
H 3.497707 -2.199180 -0.000029
H 1.048432 -2.663085 0.000059