29

O -1.130566 -2.297854 0.921310
C -1.514053 -1.212753 0.527758
C -0.806555 -0.340371 -0.367788
C -1.210177 0.969706 -0.782137
N -2.477713 1.329819 -0.306682
C -3.031141 2.629495 -0.660563
O -0.546900 1.737567 -1.465550
I 0.987485 -0.989132 -1.059085
C 2.367637 0.097171 0.140709
C 3.265228 -0.598412 0.943201
C 4.154472 0.140761 1.724742
C 4.119373 1.534230 1.697996
C 3.199367 2.202963 0.889935
C 2.307690 1.487573 0.089970
N -2.760032 -0.689642 0.918272
C -3.612328 -1.475732 1.799507
C -3.266432 0.542335 0.526799
O -4.350529 0.925215 0.903099
H -2.311869 3.126670 -1.315959
H -3.994528 2.498041 -1.169319
H -3.204963 3.224617 0.245473
H 3.271034 -1.688602 0.975344
H 4.868504 -0.380313 2.363793
H 4.812823 2.105682 2.316401
H 3.172073 3.293298 0.875493
H 1.572449 1.988137 -0.545041
H -3.108910 -2.429184 1.978654
H -3.773154 -0.942808 2.745886
H -4.590456 -1.633969 1.327998