19

C -3.437129 -0.502097 0.000001
C -2.489728 0.439962 -0.000001
C -1.029594 0.231157 -0.000001
C -0.180190 1.343152 0.000000
C 1.205931 1.194966 0.000000
C 1.792807 -0.071543 0.000000
C 3.287699 -0.251706 0.000001
C 0.941933 -1.187397 -0.000001
C -0.438144 -1.042776 -0.000001
H -3.202556 -1.568726 0.000004
H -4.493526 -0.230245 0.000001
H -2.800944 1.489805 -0.000003
H -0.615159 2.345261 0.000000
H 1.843035 2.082235 0.000001
H 3.615769 -0.815591 0.885968
H 3.615768 -0.815601 -0.885960
H 3.806942 0.715302 -0.000005
H 1.376242 -2.190235 -0.000001
H -1.067080 -1.934504 -0.000002