26

N 0.386182 0.004162 0.169884
C 1.101705 1.248826 -0.033756
C 2.550230 1.099822 0.405108
O 3.173799 0.015632 -0.234595
C 2.509696 -1.186642 0.056402
C 1.066245 -1.141488 -0.418501
C -0.995128 0.060673 0.027085
C -1.767541 1.141193 -0.200561
C -3.229613 0.771295 -0.255149
C -3.248651 -0.644481 0.353201
C -1.831881 -1.197595 0.130721
H 1.059962 1.560237 -1.098765
H 0.618495 2.034916 0.564706
H 3.121164 2.002552 0.150472
H 2.582919 0.960003 1.503293
H 3.054339 -1.994038 -0.450951
H 2.526425 -1.376838 1.147500
H 0.553837 -2.067129 -0.123277
H 1.054548 -1.082426 -1.526952
H -1.401511 2.151666 -0.377481
H -3.877594 1.466329 0.300545
H -3.596079 0.769560 -1.297720
H -3.429901 -0.564260 1.435151
H -4.031943 -1.289492 -0.066914
H -1.762115 -1.778489 -0.805874
H -1.496582 -1.856397 0.946541