38

C -2.727007 -1.692136 -0.861611
C -1.426955 -1.496868 -0.063123
C -1.766353 -1.518551 1.429111
C -0.494436 -2.671934 -0.390269
P -0.603468 0.054951 -0.801870
C -1.192406 1.607284 0.126870
C -0.791336 1.738141 1.597703
C -0.555497 2.771518 -0.647912
C -2.715906 1.704264 -0.013564
C 1.168206 -0.050091 -0.273229
C 2.119492 0.218061 -1.267115
C 3.487200 0.171141 -0.992295
C 3.928667 -0.161026 0.285865
C 2.996614 -0.438603 1.286887
C 1.632499 -0.377485 1.010365
H -3.442518 -0.874450 -0.696136
H -2.522388 -1.749223 -1.940328
H -3.213418 -2.631375 -0.550533
H -2.222571 -2.491846 1.677540
H -0.883135 -1.402292 2.071552
H -2.494036 -0.740388 1.698410
H -0.185147 -2.656331 -1.447375
H 0.414292 -2.660715 0.227278
H -1.024624 -3.620526 -0.205742
H 0.301017 1.777632 1.711534
H -1.199026 2.681423 1.999470
H -1.177141 0.920626 2.220818
H -0.861440 2.764979 -1.704414
H -0.870855 3.728764 -0.201199
H 0.543883 2.725944 -0.606892
H -3.236223 0.957140 0.602838
H -3.053315 2.699633 0.319084
H -3.033524 1.572066 -1.059560
H 1.775528 0.462423 -2.275102
H 4.208004 0.385730 -1.783061
H 4.996979 -0.206848 0.503543
H 3.333920 -0.701576 2.290918
H 0.921070 -0.587348 1.809308