17

Cl -3.315825 -0.622105 -0.565116
C -1.514757 -0.600900 -0.809717
H -1.335501 -0.098185 -1.773394
S -0.813720 0.455240 0.371543
O -1.105991 -0.019308 1.732664
C 0.939432 0.086259 0.074849
C 1.778922 1.083275 -0.406369
C 3.134612 0.803238 -0.601185
C 3.633720 -0.463170 -0.304144
C 2.780508 -1.455934 0.190195
C 1.429008 -1.182818 0.381053
O -0.907291 1.918171 0.162940
H 1.342188 2.062576 -0.610708
H 3.803099 1.577598 -0.984241
H 4.693047 -0.681546 -0.457285
H 3.175810 -2.447136 0.422849
H 0.727486 -1.931963 0.752144