24

C 4.713996 0.864859 1.148971
S 4.211320 -0.097464 -0.314333
C 5.096715 -1.633403 -0.003778
C 2.580702 -0.578663 -0.087519
C 1.704765 0.507828 -0.311071
O 2.125711 1.646187 -0.569228
C 0.220236 0.274797 -0.204506
C -0.608345 1.398748 -0.149420
C -1.989283 1.263081 -0.045193
C -2.541685 -0.015971 -0.002950
Br -4.420814 -0.216205 0.132695
C -1.736769 -1.151975 -0.068735
C -0.356430 -0.998183 -0.170910
H 5.771878 1.145514 1.062855
H 4.070296 1.752478 1.102669
H 4.512551 0.279443 2.054452
H 4.787698 -2.053449 0.961754
H 4.837843 -2.319798 -0.817968
H 6.172662 -1.424155 -0.010940
H 2.372833 -1.500998 0.449628
H -0.135958 2.380955 -0.196575
H -2.637541 2.138415 -0.000145
H -2.189385 -2.143429 -0.048586
H 0.275366 -1.884600 -0.247660