22

C 1.684199 1.926377 -0.000035
N 1.059211 0.627957 -0.000067
C -0.302752 0.434701 -0.000030
C -0.548494 -0.961854 -0.000002
C -1.878346 -1.415259 0.000060
C -2.907683 -0.485267 0.000091
C -2.639783 0.898197 0.000066
C -1.337409 1.378061 0.000006
C 0.738277 -1.598462 -0.000099
C 1.686936 -0.606632 -0.000010
C 3.174980 -0.730886 0.000017
H 1.395239 2.501382 0.893223
H 2.773650 1.811425 -0.000223
H 1.394959 2.501541 -0.893099
H -2.095812 -2.484844 0.000060
H -3.943777 -0.827021 0.000128
H -3.471421 1.604336 0.000095
H -1.132045 2.449695 -0.000001
H 0.944408 -2.665399 -0.000152
H 3.625332 -0.264305 -0.889844
H 3.625310 -0.264329 0.889901
H 3.450128 -1.792041 0.000003