16

C 0.286022 -0.728359 -0.000042
C -0.949697 -1.413420 -0.000011
C -2.143564 -0.709084 0.000070
C -2.143564 0.709084 0.000125
C -0.949697 1.413420 0.000096
C 0.286022 0.728358 0.000010
C 1.637587 1.155862 -0.000107
C 2.441102 0.000000 -0.000092
C 1.637587 -1.155862 -0.000053
H 1.985646 -2.189888 -0.000069
H -0.962953 -2.509046 -0.000031
H -3.095629 -1.248304 0.000101
H -3.095629 1.248304 0.000182
H -0.962953 2.509046 0.000115
H 1.985645 2.189889 -0.000147
H 3.535082 0.000000 -0.000126