19

O -1.865873 1.250318 -0.000073
C -1.459214 0.111322 -0.000187
C -2.393020 -1.081093 -0.000025
N -0.114303 -0.204681 -0.000033
C 0.432100 -1.561842 0.000198
C 1.955279 -1.284991 -0.000117
N 2.118711 0.161060 0.000034
C 0.971476 0.707201 0.000039
C 0.755466 2.184236 0.000098
H -2.229310 -1.708692 -0.887460
H -2.228982 -1.708812 0.887264
H -3.420022 -0.703232 0.000176
H 0.105756 -2.120193 0.889968
H 0.105440 -2.120650 -0.889161
H 2.452161 -1.714398 0.882336
H 2.451744 -1.714120 -0.882945
H 1.740598 2.662001 -0.000237
H 0.172798 2.490942 -0.877341
H 0.173417 2.490953 0.877950