15

C -1.963688 -0.091867 -0.210370
N -0.720467 -0.477672 0.421344
N 0.408181 -0.018648 -0.278438
C 0.752278 1.350029 0.040896
C 1.516085 -0.925950 -0.081855
H -2.799987 -0.459123 0.400787
H -2.092822 1.000226 -0.345969
H -2.024949 -0.563407 -1.200265
H -0.692209 -0.157770 1.396170
H 1.047951 1.472845 1.107466
H 1.590912 1.684141 -0.585916
H -0.102219 2.011224 -0.160697
H 1.205168 -1.938527 -0.364943
H 2.362303 -0.618763 -0.713009
H 1.863796 -0.949877 0.974001