15

O -2.842598 -0.000004 0.016820
C -1.592007 0.000001 0.005970
C -0.787056 1.207826 -0.004352
C 0.598496 1.192331 -0.014287
C 1.342619 0.000003 -0.016931
C 2.849607 -0.000002 0.022525
C 0.598497 -1.192330 -0.014286
C -0.787052 -1.207825 -0.004352
H -1.335280 2.154964 -0.010290
H 1.140084 2.147775 -0.023324
H 3.260391 -0.000393 1.050690
H 3.266100 -0.887409 -0.482213
H 3.266054 0.887809 -0.481531
H 1.140085 -2.147774 -0.023324
H -1.335277 -2.154963 -0.010290