17

H 0.969483 2.076354 0.004959
C 0.911709 0.986220 0.002437
Si -0.672017 -0.011933 -0.000044
C -2.076362 1.233705 -0.003680
C -0.730103 -1.105200 -1.530449
C -0.736927 -1.103456 1.531307
N 2.067549 0.392981 0.001197
N 3.046664 -0.170573 -0.000054
H -2.032494 1.876601 -0.895115
H -3.047515 0.716559 -0.005881
H -2.036773 1.876960 0.887701
H 0.144871 -1.772655 -1.563889
H -1.632884 -1.734912 -1.534527
H -0.726640 -0.497526 -2.447003
H -0.735710 -0.494824 2.447234
H -1.640552 -1.731969 1.533069
H 0.137068 -1.771997 1.568367