51

C -0.760801 2.697872 0.171886
C -2.191359 2.189133 0.274791
N -2.399143 1.135763 -0.691066
C -3.739665 0.901447 -1.157988
C -4.641048 0.099652 -0.230306
C -6.005796 -0.003674 -0.521926
C -6.858224 -0.729594 0.305377
C -6.354868 -1.364312 1.441882
C -4.997929 -1.266587 1.739311
C -4.144687 -0.539481 0.907764
C -1.419836 0.148021 -0.797022
C -1.657366 -1.104169 -1.388592
N -0.728759 -2.040668 -1.516121
C 0.494702 -1.796940 -1.061402
C 0.869841 -0.585288 -0.461819
N 2.171273 -0.302428 -0.022598
C 2.238109 0.620613 1.092495
C 1.515863 1.901759 0.714393
N 0.150607 1.598279 0.362669
C -0.125118 0.404719 -0.294487
C 3.166747 -1.353367 -0.070632
C 4.574045 -0.810999 0.038175
C 5.477459 -1.324030 0.969745
C 6.778243 -0.822516 1.049457
C 7.183418 0.203514 0.199850
C 6.283886 0.725125 -0.733042
C 4.989503 0.220314 -0.813219
H -0.616939 3.192176 -0.809265
H -0.573956 3.446997 0.956414
H -2.383476 1.857050 1.313775
H -2.892988 3.007003 0.054410
H -4.208193 1.883298 -1.336814
H -3.695088 0.407919 -2.142351
H -6.404815 0.493805 -1.410142
H -7.920325 -0.799686 0.064744
H -7.019991 -1.934745 2.091892
H -4.594207 -1.761964 2.623719
H -3.080157 -0.477550 1.141729
H -2.658685 -1.358695 -1.745360
H 1.218610 -2.606431 -1.170977
H 1.779962 0.192490 2.006845
H 3.289136 0.846775 1.312313
H 1.511619 2.598806 1.568057
H 2.062732 2.390533 -0.115960
H 3.000975 -2.126514 0.707692
H 3.073310 -1.857017 -1.043792
H 5.158445 -2.123017 1.643112
H 7.474226 -1.232413 1.783221
H 8.197980 0.599795 0.263917
H 6.596629 1.528905 -1.401654
H 4.276648 0.628567 -1.533861