12

O 2.381523 -1.251744 0.000646
C 1.245482 -0.782372 -0.000841
C -0.000003 -1.455440 -0.000274
H -0.000006 -2.542140 0.000634
C -1.245485 -0.782366 -0.000757
N -1.142668 0.644817 -0.000211
C 0.000003 1.398877 -0.000127
N 1.142671 0.644814 -0.000215
O 0.000006 2.621311 0.000476
O -2.381529 -1.251734 0.000637
H -2.020040 1.149937 0.000138
H 2.020046 1.149929 0.000127