38

C 0.685367 -0.432223 -0.059147
N 2.023840 -0.745302 -0.167616
C 2.466562 -2.114886 -0.352184
C 3.986199 -1.990008 -0.397962
C 4.242231 -0.873887 0.616189
C 3.100611 0.108918 0.344491
C 0.391754 1.027898 0.038178
C 0.862243 1.907213 -0.944405
C 0.581845 3.269652 -0.865138
C -0.164519 3.767782 0.202790
C -0.627888 2.898202 1.190339
C -0.350852 1.535325 1.109373
C -0.288473 -1.383264 -0.058556
C -1.746002 -1.180049 -0.098928
C -2.369879 -0.120149 -0.782325
C -3.755692 0.009611 -0.790437
C -4.561170 -0.920854 -0.133403
C -3.961297 -1.993625 0.524963
C -2.575011 -2.120640 0.537263
H 2.153286 -2.757471 0.495723
H 2.026356 -2.543219 -1.266639
H 4.498707 -2.929964 -0.156118
H 4.306191 -1.673327 -1.402558
H 4.154417 -1.276922 1.636756
H 5.231507 -0.407654 0.520308
H 3.399897 0.864533 -0.401955
H 2.787684 0.653397 1.247879
H 1.438611 1.508339 -1.782195
H 0.944054 3.945538 -1.641469
H -0.384234 4.834645 0.265901
H -1.211587 3.283008 2.027984
H -0.721867 0.845734 1.870028
H 0.023937 -2.428804 -0.021401
H -1.760853 0.603078 -1.325515
H -4.212921 0.842859 -1.327315
H -5.647065 -0.816679 -0.144804
H -4.576652 -2.737504 1.034238
H -2.112515 -2.962556 1.057862