24

C -2.857089 -0.358830 -1.541828
Si -2.123746 0.414186 0.009271
H -2.418886 1.877103 0.034468
C -2.852418 -0.410650 1.535641
C -0.250848 0.224706 0.003524
C 0.603275 1.335170 0.013796
C 1.989828 1.183789 0.005569
C 2.574730 -0.085374 -0.011211
C 4.070785 -0.256903 0.009654
C 1.727091 -1.200579 -0.024944
C 0.343975 -1.047203 -0.016476
H -3.952059 -0.255278 -1.557092
H -2.451577 0.115727 -2.446702
H -2.616853 -1.432063 -1.585816
H -2.610856 -1.484470 1.543630
H -2.445530 0.034223 2.454878
H -3.947489 -0.309168 1.556752
H 0.181343 2.343593 0.025608
H 2.630748 2.068823 0.010161
H 4.424801 -0.466024 1.031199
H 4.383261 -1.097829 -0.624830
H 4.581557 0.649744 -0.340624
H 2.161191 -2.203389 -0.044987
H -0.283192 -1.944334 -0.028790