25

O -0.098533 2.057007 0.037801
C -0.849839 1.077317 0.016458
C -0.503632 -0.307138 0.003653
C 0.838600 -0.798761 -0.031298
O 1.832195 0.147433 0.003606
C 3.140283 -0.353574 -0.027603
C 4.078660 0.834913 0.045267
O 1.161831 -1.984561 -0.086721
C -1.536377 -1.417262 -0.040001
C -2.932046 -0.973374 0.382018
C -3.313378 0.302134 -0.358443
C -2.361659 1.419367 0.045539
H 3.309593 -1.052183 0.810196
H 3.309464 -0.942720 -0.946180
H 3.892446 1.514508 -0.797962
H 3.898238 1.399503 0.970708
H 5.130536 0.511626 0.021315
H -1.608282 -1.857083 -1.057918
H -1.194631 -2.250656 0.595346
H -3.665769 -1.776524 0.195893
H -2.944357 -0.768029 1.467910
H -3.232996 0.116851 -1.444779
H -4.361911 0.587077 -0.161049
H -2.583196 1.741819 1.079189
H -2.476749 2.315041 -0.583704