13

C -2.359393 -0.217794 -0.000096
C -1.028158 -0.354215 -0.000019
C -0.096053 0.771823 0.000012
C 1.241088 0.657860 0.000059
C 2.001014 -0.642472 0.000059
H -2.824050 0.772019 -0.000144
H -3.022710 -1.084158 -0.000229
H -0.598011 -1.360694 -0.000059
H -0.542467 1.771077 0.000033
H 1.830110 1.579404 0.000131
H 1.761008 -1.249888 0.886445
H 1.761113 -1.249827 -0.886397
H 3.084018 -0.469144 0.000130