13

O 3.102197 0.000000 0.000004
C 1.861282 0.000000 -0.000007
C 1.062999 -1.220151 0.000007
C -0.311014 -1.212010 0.000008
C -1.045783 0.000000 -0.000002
C -2.469714 0.000000 -0.000002
N -3.632412 0.000000 0.000003
C -0.311014 1.212010 -0.000007
C 1.062999 1.220151 -0.000008
H 1.618385 -2.161380 0.000015
H -0.862994 -2.156568 0.000016
H -0.862994 2.156569 -0.000011
H 1.618385 2.161380 -0.000013