29

N -1.697461 0.237974 -0.116310
C -2.535573 1.155038 0.641358
C -3.972467 1.068109 0.155439
O -4.438935 -0.254695 0.226158
C -3.673532 -1.103434 -0.589931
C -2.209259 -1.116274 -0.172528
C -0.333993 0.425775 -0.029477
C 0.627707 -0.520049 -0.065201
C 2.067883 -0.229670 -0.054948
C 2.970132 -1.232049 0.338021
C 4.340611 -0.992621 0.387255
C 4.848324 0.258814 0.040852
C 3.967545 1.261501 -0.366127
C 2.598435 1.018925 -0.422805
H -2.506929 0.911929 1.722579
H -2.151149 2.177955 0.513869
H -4.628840 1.683213 0.784995
H -4.030224 1.438056 -0.886888
H -4.100853 -2.111305 -0.506280
H -3.744585 -0.777143 -1.645848
H -1.628282 -1.685682 -0.912446
H -2.097386 -1.621366 0.809233
H -0.051347 1.479347 0.071900
H 0.353938 -1.577167 -0.071214
H 2.581343 -2.213351 0.619631
H 5.017007 -1.789794 0.700607
H 5.921860 0.448668 0.076670
H 4.352485 2.239897 -0.659415
H 1.931788 1.804107 -0.783941