20

H -2.300992 -1.235780 0.036891
N -1.435265 -0.767145 -0.212980
C -1.553229 0.644821 0.094616
C -0.372013 1.483683 -0.391494
C 0.916342 1.256287 0.406578
C 1.765580 0.053823 -0.021415
C 0.992007 -1.224157 -0.382150
C -0.308409 -1.465313 0.388801
H -2.472619 1.011485 -0.387549
H -1.668428 0.833185 1.186641
H -0.207616 1.292779 -1.465013
H -0.662849 2.541576 -0.298585
H 1.547837 2.156492 0.353709
H 0.640147 1.153298 1.469840
H 2.384098 0.336837 -0.888158
H 2.476861 -0.163573 0.791432
H 0.712458 -1.212326 -1.446713
H 1.662703 -2.086364 -0.244972
H -0.168700 -1.212302 1.463692
H -0.537717 -2.540162 0.350033