15

H 1.739194 -1.960103 0.000021
C 1.496766 -0.899749 -0.000001
C 0.129442 -0.389893 0.000008
C -0.937279 -1.303134 0.000055
C -2.253831 -0.854246 0.000064
C -2.535645 0.512015 0.000027
C -1.481512 1.425663 -0.000020
C -0.162098 0.984621 -0.000029
N 2.509043 -0.084568 -0.000038
N 3.365937 0.654434 -0.000069
H -0.726128 -2.374365 0.000084
H -3.068846 -1.579869 0.000103
H -3.568293 0.862472 0.000034
H -1.687079 2.497368 -0.000050
H 0.651226 1.713766 -0.000069