15

C -0.235701 0.775896 0.000003
C 1.009065 1.420368 0.000030
C 2.145600 0.623716 0.000040
C 2.022466 -0.780268 0.000024
N 0.863909 -1.425057 -0.000001
C -0.209840 -0.645375 -0.000013
N -1.508507 -1.082269 -0.000014
C -2.348843 0.005274 -0.000059
C -1.617918 1.164665 -0.000015
H 1.083810 2.509326 0.000041
H 3.139838 1.070408 0.000061
H 2.923757 -1.400437 0.000035
H -1.776317 -2.056837 0.000001
H -3.427300 -0.129963 -0.000088
H -2.020575 2.173124 -0.000011