25

O 0.554075 2.091206 0.000051
C 0.502939 0.857029 -0.000173
C 1.863573 0.129972 -0.000060
C 3.004833 0.941666 0.000011
C 4.284994 0.392103 0.000108
C 4.453359 -0.993152 0.000137
C 3.326198 -1.815276 0.000069
C 2.046810 -1.258731 -0.000026
C -0.643564 0.033549 -0.000187
H -0.554159 -1.048522 -0.000256
C -1.981015 0.525271 -0.000104
O -2.888843 -0.545686 -0.000084
C -4.240139 -0.179006 0.000050
C -5.063108 -1.453109 0.000085
O -2.427787 1.655121 0.000027
H 2.829445 2.018763 -0.000017
H 5.160216 1.046895 0.000163
H 5.454987 -1.429253 0.000212
H 3.443445 -2.901695 0.000092
H 1.180903 -1.920295 -0.000077
H -4.473903 0.445601 0.879928
H -4.474064 0.445656 -0.879746
H -4.827676 -2.056938 -0.888286
H -4.827516 -2.056992 0.888377
H -6.140515 -1.230258 0.000189