48

C 0.037405 3.470711 0.575335
Si -0.359104 2.080358 -0.645191
C -2.153439 2.253129 -1.218061
C 0.772205 2.243788 -2.153029
Si 0.004261 -0.004334 0.380077
C -0.592990 0.064055 2.215844
C -2.008106 0.527212 2.346514
C -3.047517 -0.231708 2.699865
Si -1.088157 -1.678645 -0.858904
C -0.684002 -1.394744 -2.687811
C -0.438885 -3.381321 -0.346813
C -2.966141 -1.659109 -0.658114
Si 2.312777 -0.450514 0.429663
C 3.251230 1.104314 0.964501
C 2.651856 -1.818327 1.691782
C 2.945488 -1.003888 -1.264498
H -0.622601 3.432404 1.455156
H 1.076654 3.401044 0.930187
H -0.094746 4.454337 0.097775
H -2.326019 3.246495 -1.661525
H -2.393375 1.496116 -1.980372
H -2.856653 2.122049 -0.381960
H 1.833320 2.241539 -1.859440
H 0.613715 1.415547 -2.860322
H 0.572673 3.187401 -2.684749
H -0.464027 -0.933560 2.666298
H 0.086712 0.755082 2.743779
H -2.192174 1.581832 2.103786
H -2.915068 -1.287090 2.956525
H -4.060086 0.172754 2.745458
H 0.401357 -1.350815 -2.863582
H -1.095331 -2.212201 -3.300920
H -1.125245 -0.452134 -3.048152
H -0.610420 -3.562045 0.725564
H -0.946884 -4.179400 -0.910766
H 0.642125 -3.467616 -0.536328
H -3.383030 -0.663792 -0.871185
H -3.420389 -2.380883 -1.355752
H -3.262038 -1.932316 0.364629
H 2.886439 1.469152 1.937181
H 4.328420 0.897354 1.062890
H 3.127886 1.915716 0.231131
H 2.096736 -2.735459 1.444160
H 3.724995 -2.064233 1.720649
H 2.349943 -1.502068 2.701815
H 2.743957 -0.248190 -2.038572
H 4.033427 -1.171237 -1.228986
H 2.470199 -1.946560 -1.576495