66

H 0.206345 -2.033747 -0.957567
P -0.051048 -0.599565 -0.935791
N -1.277703 -0.595300 0.279238
C -2.581439 -0.034808 0.116679
C -2.779117 1.352223 0.238817
C -1.627910 2.310517 0.492635
C -1.481590 3.304867 -0.664013
C -1.794931 3.029455 1.834304
C -4.080126 1.850882 0.104214
C -5.150664 1.000238 -0.143208
C -4.939201 -0.371526 -0.267697
C -3.657150 -0.909931 -0.142105
C -3.391923 -2.392683 -0.334161
C -4.569801 -3.282348 0.059210
C -2.978705 -2.658680 -1.787200
C -0.694048 -0.686868 1.567438
C 0.635066 -0.482069 1.554611
N 1.136874 -0.191427 0.273987
C 2.522762 -0.058900 -0.026718
C 3.383851 -1.166605 0.091861
C 2.887883 -2.536456 0.526654
C 3.122905 -3.584010 -0.566247
C 3.529934 -2.966088 1.849272
C 4.739104 -0.992032 -0.214282
C 5.221134 0.232620 -0.656201
C 4.353749 1.315748 -0.789644
C 3.000679 1.194980 -0.471620
C 2.065035 2.391147 -0.519089
C 1.847219 2.923911 0.903149
C 2.541126 3.509463 -1.443127
H -0.699515 1.722890 0.544034
H -2.376587 3.938440 -0.761912
H -0.619905 3.968913 -0.495963
H -1.331442 2.779176 -1.618764
H -2.708590 3.643887 1.844704
H -1.861457 2.306751 2.660206
H -0.940159 3.694138 2.027727
H -4.254753 2.925446 0.194740
H -6.158500 1.406938 -0.242344
H -5.786450 -1.030244 -0.463306
H -2.535245 -2.650493 0.306930
H -5.416444 -3.164770 -0.634052
H -4.269720 -4.339657 0.027410
H -4.925364 -3.056026 1.074712
H -2.716963 -3.716932 -1.935514
H -3.805475 -2.406483 -2.469118
H -2.112920 -2.046261 -2.081594
H -1.326575 -0.865426 2.435058
H 1.309690 -0.485602 2.409911
H 1.803385 -2.473047 0.689060
H 2.706450 -4.555684 -0.261375
H 2.644222 -3.284623 -1.509785
H 4.197084 -3.724848 -0.761414
H 3.340926 -2.229048 2.643326
H 3.128435 -3.936210 2.177660
H 4.620883 -3.071259 1.744803
H 5.423168 -1.838401 -0.119668
H 6.277814 0.347586 -0.902723
H 4.743630 2.271718 -1.140184
H 1.093342 2.037477 -0.898244
H 1.168571 3.790792 0.895473
H 1.414244 2.153582 1.558135
H 2.806372 3.246932 1.336878
H 2.768218 3.133768 -2.451227
H 1.759886 4.278105 -1.533646
H 3.441874 4.004507 -1.049264