39

C -1.713131 2.841503 0.590859
Si -0.039944 2.031154 0.366107
C 1.172461 3.219218 -0.412247
C 0.583767 1.314335 1.975967
O -0.198060 0.756902 -0.757431
C -0.481934 -0.524185 -0.407323
C 0.488585 -1.437143 -0.195360
C 1.941148 -1.217393 -0.229925
C 2.555967 -0.184760 -0.962078
C 3.938486 -0.018216 -0.928472
C 4.740260 -0.873409 -0.172235
C 4.146497 -1.914356 0.541075
C 2.765783 -2.086105 0.505516
C -1.931195 -0.826999 -0.280538
C -2.410318 -1.851954 0.548366
C -3.775509 -2.106054 0.643478
C -4.686722 -1.337366 -0.081561
C -4.221408 -0.308919 -0.899822
C -2.855753 -0.052827 -0.995693
H -1.635222 3.700264 1.275471
H -2.445512 2.134710 1.008420
H -2.102473 3.208555 -0.370809
H 1.237020 4.148386 0.173688
H 0.854094 3.481486 -1.432177
H 2.177001 2.775072 -0.466252
H 0.720487 2.109985 2.724074
H 1.547395 0.802776 1.830138
H -0.133524 0.584462 2.381414
H 0.165319 -2.446801 0.063150
H 1.940356 0.475237 -1.571277
H 4.396380 0.786307 -1.507406
H 5.822120 -0.735322 -0.147019
H 4.762382 -2.597030 1.128933
H 2.306367 -2.903559 1.066000
H -1.710170 -2.438766 1.144830
H -4.131765 -2.901579 1.299740
H -5.756668 -1.535154 -0.002282
H -4.926518 0.298141 -1.469896
H -2.485281 0.749248 -1.634844