42

C -1.981406 1.882891 1.634131
Si -1.993206 1.906344 -0.230315
O 0.913377 -0.604713 -1.275189
C 2.067140 -0.282141 -0.610427
C 2.067212 0.281987 0.610497
O 0.913572 0.604521 1.275460
Si -1.993673 -1.906173 0.230324
C -1.981558 -1.882808 -1.634123
C -3.690583 -1.769376 1.012200
C -0.595698 2.071617 -1.199318
C 3.324053 0.654396 1.344075
C 4.549731 -0.045357 0.762116
C 4.549670 0.045017 -0.762255
C 3.323899 -0.654657 -1.344105
C -0.596340 -2.071389 1.199583
C -3.689951 1.769600 -1.012547
H -2.524417 2.752288 2.034105
H -2.466396 0.974601 2.023419
H -0.940632 1.904625 1.984344
H -0.940731 -1.904634 -1.984173
H -2.524583 -2.752166 -2.034161
H -2.466419 -0.974491 -2.023513
H -4.194198 -0.829015 0.743463
H -4.337359 -2.593443 0.675710
H -3.605615 -1.818786 2.106304
H 0.242449 0.085511 -1.108176
H -0.648555 2.124230 -2.289709
H 0.396474 2.194043 -0.754774
H 3.453801 1.751318 1.317018
H 3.183440 0.391004 2.403779
H 5.470011 0.389048 1.179432
H 4.533011 -1.108051 1.057156
H 4.532987 1.107713 -1.057293
H 5.469887 -0.389444 -1.179650
H 3.453589 -1.751588 -1.317063
H 3.183216 -0.391256 -2.403796
H -0.649364 -2.123851 2.289972
H 0.395899 -2.193857 0.755205
H 0.242353 -0.085279 1.107899
H -3.604703 1.818840 -2.106636
H -4.193695 0.829316 -0.743783
H -4.336746 2.593767 -0.676342