28

H 0.000017 -2.679094 0.512639
C 0.000010 -1.611626 0.773515
H 0.000004 -1.551135 1.878680
C 1.238143 -0.928062 0.255132
C 1.204412 0.475992 0.140282
C 2.360530 1.158888 -0.262501
C 3.530671 0.454200 -0.542343
C 3.562644 -0.933539 -0.447130
C 2.409081 -1.612996 -0.052818
N -0.000008 1.143547 0.414446
C -0.000051 2.583324 0.510286
C -1.204404 0.475973 0.140261
C -2.360527 1.158872 -0.262491
C -3.530666 0.454181 -0.542334
C -3.562627 -0.933561 -0.447142
C -2.409060 -1.613017 -0.052837
C -1.238125 -0.928079 0.255117
H 2.350323 2.241457 -0.380227
H 4.420631 1.004101 -0.852803
H 4.475283 -1.484478 -0.675684
H 2.418301 -2.701947 0.035239
H -0.000015 3.087110 -0.474270
H -0.886375 2.908373 1.069329
H 0.886186 2.908431 1.069428
H -2.350323 2.241446 -0.380180
H -4.420633 1.004079 -0.852772
H -4.475265 -1.484504 -0.675691
H -2.418275 -2.701968 0.035220