20

C -3.574072 -0.349656 0.000035
O -2.327449 -0.991783 -0.000134
C -1.210617 -0.230767 -0.000062
C -1.218578 1.172260 0.000005
C 0.000000 1.846579 0.000055
C 1.218578 1.172260 0.000036
C 1.210617 -0.230767 -0.000032
O 2.327449 -0.991783 -0.000072
C 3.574072 -0.349656 0.000149
C 0.000000 -0.924056 -0.000069
H -4.333921 -1.138987 0.000056
H -3.706648 0.277928 0.897117
H -3.706835 0.278055 -0.896931
H -2.149096 1.736282 0.000011
H 0.000000 2.937929 0.000105
H 2.149096 1.736282 0.000065
H 3.706871 0.278056 -0.896810
H 3.706611 0.277926 0.897237
H 4.333921 -1.138987 0.000199
H 0.000000 -2.013138 -0.000114