19

N -0.979823 1.414554 -0.910467
C -1.161873 0.028270 -0.515349
C -0.240376 -0.431014 0.633217
C 1.216670 -0.257572 0.355411
C 2.038088 0.766248 0.776146
N 3.268205 0.526140 0.203280
C 3.141562 -0.614474 -0.528095
N 1.934413 -1.106147 -0.459701
C -2.634584 -0.220566 -0.002289
O -3.296777 0.809793 0.234941
O -2.928166 -1.413624 0.166784
H -1.764180 1.897785 -0.459035
H -0.108443 1.788626 -0.536753
H -0.986140 -0.658008 -1.362884
H -0.507515 0.152588 1.530984
H -0.474337 -1.486230 0.829631
H 1.849010 1.615794 1.425228
H 4.099598 1.089699 0.301995
H 3.975059 -1.036785 -1.088997