42

C -5.894874 0.319502 -0.489857
O -5.249280 -0.756684 0.131694
C -3.899395 -0.833870 0.037964
C -3.290369 -1.922299 0.675409
C -1.912920 -2.070681 0.636827
C -3.101476 0.083875 -0.651113
C -1.716688 -0.083978 -0.685959
C -1.083355 -1.147077 -0.027977
C 0.372666 -1.371178 -0.034730
C 1.356342 -0.432294 -0.056057
C 1.081178 1.030369 0.058625
C 0.373333 1.539844 1.152478
C 0.113649 2.905016 1.248906
C 0.559866 3.776039 0.254482
C 1.271989 3.276346 -0.835705
C 1.535028 1.911204 -0.930417
N 2.689848 -0.756756 -0.214194
C 3.110394 -2.130341 -0.416751
C 4.629343 -2.022802 -0.501359
C 4.924218 -0.924451 0.521103
C 3.785515 0.074501 0.296407
H -6.966285 0.204564 -0.290059
H -5.553945 1.287140 -0.083748
H -5.730525 0.317108 -1.580843
H -3.927397 -2.636578 1.197945
H -1.453999 -2.922884 1.143588
H -3.544309 0.928843 -1.176797
H -1.118841 0.632051 -1.251172
H 0.673223 -2.421024 -0.024027
H 0.015449 0.849504 1.918715
H -0.441691 3.291207 2.105085
H 0.354330 4.844918 0.330331
H 1.621868 3.952963 -1.617100
H 2.085244 1.510784 -1.784935
H 2.812528 -2.774438 0.435965
H 2.641600 -2.549010 -1.321402
H 5.137198 -2.971815 -0.286198
H 4.925712 -1.695462 -1.509774
H 4.859991 -1.342166 1.537545
H 5.915507 -0.466801 0.405889
H 4.075304 0.846558 -0.436900
H 3.497681 0.598950 1.220053