25

O 1.460734 1.690832 -0.000209
C 1.231035 0.493064 -0.000038
C -0.001749 -0.217561 -0.000055
C -0.060485 -1.725956 -0.000240
C -1.219211 0.520426 -0.000018
O -2.321493 -0.355741 -0.000367
C -3.572987 0.270604 -0.000132
C -4.632422 -0.814092 0.000370
O -1.449702 1.717217 0.000268
O 2.340177 -0.375485 0.000186
C 3.586098 0.261471 -0.000047
C 4.654968 -0.814066 0.000227
H -0.597111 -2.124212 0.879709
H -0.596712 -2.124011 -0.880527
H 0.951290 -2.147066 -0.000049
H -3.677295 0.930475 0.878915
H -3.677819 0.930180 -0.879359
H -4.523898 -1.453663 -0.887633
H -4.523251 -1.453377 0.888499
H -5.643904 -0.380411 0.000660
H 3.685784 0.921638 -0.879325
H 3.685854 0.922181 0.878810
H 4.552901 -1.453989 0.888813
H 4.552591 -1.454706 -0.887807
H 5.662361 -0.370971 -0.000123