11

N -0.000012 -1.411526 -0.000207
C 1.139273 -0.723594 -0.000074
C 1.197061 0.671010 0.000147
C 0.000011 1.382756 0.000202
C -1.197049 0.671030 0.000049
C -1.139284 -0.723577 -0.000137
H 2.062580 -1.311658 -0.000105
H 2.160351 1.181997 0.000271
H 0.000020 2.474190 0.000362
H -2.160332 1.182030 0.000080
H -2.062601 -1.311625 -0.000274