27

C 3.285828 1.227578 -0.029345
Si 1.887010 -0.009554 -0.015249
O 0.501246 0.984242 -0.046563
C -0.771312 0.590448 0.010074
C -1.814179 1.430087 0.096388
C -3.236285 0.937706 0.059492
C -3.267331 -0.524336 -0.382456
C -2.154097 -1.285057 0.318508
O -0.882108 -0.764907 -0.037830
C 1.928597 -1.086505 -1.543720
C 1.902603 -1.024131 1.557592
H 3.239092 1.882368 0.852784
H 4.259705 0.715296 -0.025531
H 3.235787 1.861364 -0.926598
H -1.588125 2.493139 0.159731
H -3.716664 1.041907 1.048641
H -3.833952 1.551788 -0.632096
H -4.235942 -0.995428 -0.162154
H -3.101444 -0.595107 -1.468918
H -2.272799 -1.209547 1.414372
H -2.134560 -2.345916 0.039636
H 2.855575 -1.678900 -1.578748
H 1.071015 -1.772971 -1.550249
H 1.884615 -0.467969 -2.452388
H 1.793752 -0.373010 2.437707
H 1.077932 -1.749993 1.557799
H 2.851824 -1.572681 1.655444