21

C 1.751010 -1.399124 0.653297
Si 0.674344 -0.000001 0.000000
C 1.750942 1.399164 -0.653317
C -0.613961 -0.587578 -1.274107
C -1.932094 -0.603114 -0.475058
C -1.932083 0.603116 0.475063
C -0.613959 0.587535 1.274125
H 2.361199 -1.064647 1.505901
H 1.128201 -2.240743 0.991793
H 2.433785 -1.772289 -0.124728
H 2.361088 1.064728 -1.505966
H 1.128097 2.240783 -0.991749
H 2.433753 1.772317 0.124682
H -0.681153 0.151009 -2.090476
H -0.389002 -1.559162 -1.737469
H -2.817682 -0.602582 -1.129173
H -1.985216 -1.526544 0.127979
H -1.985169 1.526550 -0.127972
H -2.817677 0.602608 1.129167
H -0.681169 -0.151095 2.090454
H -0.388996 1.559093 1.737539