22

C -1.905144 -1.522084 -0.439226
C -0.706859 -1.203508 0.443765
N -0.000008 -0.000253 0.029221
C -0.687553 1.213295 0.446116
C -0.368248 2.409499 -0.439787
C 1.395018 -0.011337 0.445207
C 2.272492 -0.885859 -0.439742
H -2.661394 -0.724933 -0.408693
H -1.579496 -1.637613 -1.482188
H -2.391605 -2.452798 -0.114193
H -1.020438 -1.132616 1.509502
H -0.003729 -2.047318 0.392249
H -1.770175 1.026228 0.400089
H -0.464256 1.450170 1.510488
H 0.701295 2.663133 -0.417842
H -0.639511 2.185840 -1.480776
H -0.926393 3.297635 -0.111021
H 1.773693 1.020090 0.397533
H 1.489251 -0.321902 1.509953
H 1.959726 -1.939554 -0.416259
H 2.214413 -0.540395 -1.481059
H 3.320437 -0.844232 -0.110326