33

C -0.287219 2.448305 -0.659656
Si -0.160707 0.819036 0.277617
H -0.419384 1.054814 1.729117
C -1.337376 -0.482819 -0.446825
C -2.805141 -0.514950 0.034458
C -3.432989 0.880326 -0.052449
C -3.597471 -1.477713 -0.857898
C -2.873355 -1.013062 1.482349
C 1.605335 0.174006 0.128989
C 2.481435 0.168409 1.223632
C 3.790538 -0.298656 1.099402
C 4.247541 -0.771235 -0.129590
C 3.392197 -0.774988 -1.231875
C 2.086172 -0.306785 -1.100003
H -1.287953 2.895966 -0.583257
H 0.446561 3.168699 -0.269952
H -0.065111 2.284861 -1.725467
H -1.322421 -0.330262 -1.542182
H -0.881032 -1.473884 -0.278660
H -3.338012 1.294880 -1.068841
H -4.503688 0.842416 0.200486
H -2.952267 1.580172 0.650441
H -3.156747 -2.486089 -0.831371
H -4.644090 -1.553994 -0.523823
H -3.597731 -1.134492 -1.904028
H -2.308948 -0.356302 2.160664
H -3.916905 -1.044533 1.832046
H -2.456378 -2.028514 1.567130
H 2.135341 0.532975 2.194484
H 4.454961 -0.294980 1.965292
H 5.270377 -1.138428 -0.229713
H 3.745254 -1.144909 -2.196230
H 1.430077 -0.319933 -1.975973