10

N -2.045410 -0.011366 -0.000010
C -0.860405 0.807999 -0.000020
C 0.429618 0.019031 0.000001
F 0.512126 -0.773068 -1.075262
F 1.498350 0.816049 -0.000026
F 0.512133 -0.773006 1.075307
H -2.059357 -0.615803 0.818980
H -2.059284 -0.615933 -0.818906
H -0.841113 1.459664 -0.885794
H -0.841123 1.459688 0.885736