30

C -1.558463 2.102355 -0.000034
C -1.932966 0.816752 -0.000018
Si -0.657816 -0.584587 0.000018
C -0.947419 -1.660807 -1.531633
Si 1.559696 0.198988 -0.000009
C 1.935709 1.215187 1.550270
C 2.685057 -1.324101 -0.000012
C 1.935677 1.215173 -1.550303
C -0.947410 -1.660724 1.531729
C -3.392735 0.433430 -0.000023
H -2.294073 2.915646 -0.000060
H -0.506790 2.404112 -0.000030
H -0.827181 -1.076037 -2.455776
H -0.232279 -2.497050 -1.559744
H -1.961722 -2.089145 -1.528297
H 1.733067 0.626358 2.457708
H 2.996924 1.509167 1.567386
H 1.327923 2.130079 1.601917
H 2.510595 -1.947020 -0.890333
H 3.744266 -1.022694 -0.000026
H 2.510615 -1.947008 0.890321
H 1.327897 2.130070 -1.601940
H 2.996894 1.509144 -1.567449
H 1.733006 0.626340 -2.457733
H -1.961712 -2.089064 1.528423
H -0.232268 -2.496963 1.559883
H -0.827168 -1.075901 2.455839
H -4.047213 1.317792 -0.000036
H -3.640893 -0.176525 -0.883349
H -3.640905 -0.176508 0.883312