31

C 3.588179 -0.046714 -0.102860
C 2.805268 1.262899 -0.113465
C 1.395888 1.039561 -0.649213
N 0.688945 0.021279 0.122373
C 1.387715 -1.251601 0.102655
C 2.801378 -1.108760 0.659245
C -0.716176 -0.015271 -0.019623
C -1.388573 -1.105978 -0.434064
C -2.890821 -1.221497 -0.441936
C -3.559077 -0.124658 0.382405
C -2.922080 1.223781 0.067565
C -1.447031 1.221972 0.459619
H 3.741680 -0.384587 -1.142757
H 4.586257 0.094279 0.338148
H 2.731000 1.658453 0.912565
H 3.314189 2.022264 -0.726023
H 0.834382 1.980522 -0.620731
H 1.454202 0.732217 -1.717040
H 0.813691 -1.966304 0.708534
H 1.440459 -1.665980 -0.929424
H 3.309682 -2.083599 0.613364
H 2.730351 -0.822958 1.721114
H -0.831032 -1.977532 -0.782307
H -3.257081 -1.176194 -1.483896
H -3.189202 -2.214275 -0.068380
H -4.641905 -0.105702 0.190053
H -3.425629 -0.340796 1.455950
H -3.013510 1.421359 -1.013979
H -3.445007 2.039988 0.587490
H -1.340076 1.264140 1.557702
H -0.963092 2.133348 0.081029