23

C 1.279022 -1.887791 -0.000480
C 1.448291 -0.554033 -0.000614
C 2.792681 0.049302 -0.000075
C 3.008823 1.366074 -0.000235
O 0.448776 0.352605 -0.001333
Si -1.231486 0.136261 0.000171
C -1.755362 -0.766259 1.555902
C -1.894524 1.881173 -0.000657
C -1.758131 -0.768480 -1.553347
H 0.294278 -2.354346 -0.001061
H 2.152484 -2.537717 0.000070
H 3.627189 -0.656068 0.000463
H 2.168044 2.061702 -0.000793
H 4.021155 1.772104 0.000176
H -1.365914 -0.245069 2.443030
H -2.853816 -0.783216 1.627726
H -1.397789 -1.804546 1.589433
H -1.549485 2.426193 -0.891413
H -2.994548 1.885794 0.000188
H -1.548104 2.427592 0.888703
H -1.401831 -1.807247 -1.585542
H -2.856689 -0.784311 -1.623823
H -1.369175 -0.249280 -2.441856