13

C 1.597386 -0.895666 -0.000104
C 0.520010 -0.097443 -0.000029
C 0.637095 1.402058 -0.000065
C -0.828168 -0.690384 0.000059
C -1.974494 -0.002000 0.000142
H 2.610251 -0.487493 -0.000217
H 1.492490 -1.983154 -0.000085
H 0.145391 1.832322 -0.885995
H 0.145618 1.832298 0.886002
H 1.688765 1.714649 -0.000218
H -0.863270 -1.784542 0.000087
H -2.938327 -0.513502 0.000249
H -1.991891 1.090032 0.000159