32

O -0.891003 -2.420323 0.100399
C -1.086584 -1.217212 -0.023653
C -0.087837 -0.183749 -0.117932
C -0.465843 1.199363 -0.247595
O 0.621721 2.056024 -0.088426
C 0.346171 3.429743 -0.194000
C -0.236859 3.993060 1.093461
O -1.559082 1.701043 -0.442008
C 1.327139 -0.602358 -0.060457
C 2.327472 0.008547 -0.848444
C 3.657867 -0.396435 -0.800821
C 4.056084 -1.444375 0.030167
C 3.085206 -2.074378 0.808797
C 1.754954 -1.664995 0.765225
O -2.382565 -0.776654 -0.077968
C -3.365448 -1.775714 -0.009023
C -4.711233 -1.088295 -0.121636
H -0.351172 3.613800 -1.025686
H 1.310382 3.910692 -0.423354
H -1.212332 3.524460 1.277224
H -0.370042 5.083913 1.021652
H 0.430585 3.773406 1.939431
H 2.040782 0.822290 -1.513311
H 4.393051 0.109209 -1.432861
H 5.099325 -1.766459 0.065335
H 3.366814 -2.900279 1.467754
H 1.013615 -2.179376 1.373450
H -3.278425 -2.338425 0.936519
H -3.220661 -2.515514 -0.814360
H -4.831180 -0.356753 0.689607
H -5.532457 -1.818592 -0.068993
H -4.777389 -0.542292 -1.072909