31

Cl 4.893016 -2.249340 0.041702
C 3.737469 -0.951101 0.042798
C 3.867620 0.081874 -0.882115
C 2.941719 1.121143 -0.877690
C 1.892314 1.141832 0.046164
C 1.775054 0.085713 0.958212
C 2.692202 -0.958206 0.965287
C 0.942100 2.283602 0.094180
C 1.324292 3.554345 -0.092168
N -0.386957 1.984903 0.461602
C -1.108107 0.942662 -0.062607
O -0.723091 0.150825 -0.871853
O -2.342957 0.954937 0.508118
C -3.281589 -0.008503 0.189434
C -2.959186 -1.357673 0.046905
C -3.983417 -2.266853 -0.211081
C -5.307076 -1.842807 -0.318368
C -5.612118 -0.490808 -0.166261
C -4.598984 0.431200 0.084995
H 4.683574 0.058462 -1.604084
H 3.021574 1.917663 -1.619136
H 0.958097 0.089695 1.682048
H 2.606822 -1.777260 1.679265
H 0.600973 4.370675 -0.064058
H 2.375492 3.797217 -0.240186
H -0.908855 2.671660 0.991938
H -1.924928 -1.686292 0.120782
H -3.737846 -3.323218 -0.329086
H -6.099297 -2.565075 -0.518265
H -6.644596 -0.147503 -0.244923
H -4.808950 1.493813 0.209326