10

C -0.845268 2.064851 0.000000
C 0.000000 0.808444 0.000000
C -0.736051 -0.457103 0.000000
N -0.005886 -1.548908 0.000000
N 0.677998 -2.436155 0.000000
O 1.210429 0.850293 0.000000
H -1.923152 1.863357 0.000000
H -0.581455 2.659704 0.885234
H -0.581455 2.659704 -0.885234
H -1.814241 -0.586822 0.000000