36

O -2.679380 1.512125 0.039298
C -1.499999 1.212469 -0.001912
C -0.858674 -0.074438 0.052850
C 0.614381 -0.209378 0.090940
C 1.435033 0.642479 0.864581
C 2.815403 0.506088 0.912964
C 3.452874 -0.510462 0.196301
O 4.820157 -0.580802 0.304723
C 5.464767 -1.591094 -0.403101
C 2.675176 -1.382000 -0.565425
C 1.287049 -1.223754 -0.611945
C -1.627220 -1.289629 0.044298
O -2.987007 -1.117773 0.057767
C -3.744698 -2.298838 0.043488
C -5.205186 -1.895167 0.061264
O -1.191233 -2.435854 0.028207
O -0.581525 2.249186 -0.155558
C -1.134270 3.536026 -0.231008
C 0.011443 4.516258 -0.388096
H 0.962367 1.434689 1.443796
H 3.429766 1.174696 1.519330
H 6.539923 -1.492109 -0.202659
H 5.133410 -2.596373 -0.084746
H 5.296243 -1.506248 -1.492247
H 3.130628 -2.192608 -1.135422
H 0.697887 -1.922566 -1.202542
H -3.502703 -2.901641 -0.848646
H -3.490232 -2.930471 0.911611
H -5.859014 -2.780158 0.050900
H -5.422106 -1.301458 0.960186
H -5.435530 -1.269931 -0.812615
H -1.836713 3.602829 -1.079168
H -1.730829 3.754842 0.671125
H 0.690671 4.456377 0.474520
H 0.593885 4.276043 -1.288770
H -0.362231 5.547672 -0.471341