18

O -3.488548 -1.132752 0.000014
C -2.989466 -0.000595 0.000084
O -3.488988 1.131366 0.000029
C -1.421865 -0.000286 0.000038
C -0.719496 -1.205239 0.000024
C 0.673049 -1.181234 -0.000003
C 1.404601 0.000280 -0.000020
C 0.672577 1.181499 -0.000012
C -0.719977 1.204947 0.000019
N 1.420197 2.454214 -0.000033
O 2.629942 2.397737 -0.000020
O 0.783213 3.479372 -0.000021
N 1.421191 -2.453644 -0.000011
O 0.784648 -3.479076 -0.000022
O 2.630913 -2.396673 -0.000045
H -1.292973 -2.132887 0.000038
H 2.491103 0.000496 -0.000038
H -1.293826 2.132365 0.000033