16

O 3.380694 -0.541015 -0.000054
N 2.266428 0.015414 -0.000099
C 1.148516 -0.772735 -0.000190
H 1.383213 -1.833293 -0.000178
C -0.208217 -0.331491 -0.000070
C -0.657587 1.019112 0.000012
C -2.015022 1.322641 0.000144
C -2.997551 0.329145 0.000193
C -2.577210 -1.005326 0.000125
C -1.228118 -1.325805 -0.000005
O 2.179983 1.258165 -0.000065
H 0.093607 1.804147 -0.000032
H -2.314746 2.375087 0.000199
H -4.059139 0.584098 0.000288
H -3.316639 -1.811592 0.000168
H -0.925574 -2.376784 -0.000057