35

C 1.110492 -1.138495 -2.465376
N 1.640166 -1.093528 -1.130079
C 0.826323 -1.513558 0.002399
N 1.640196 -1.089890 1.133505
C 1.110480 -1.129859 2.468964
C 2.519084 -0.099571 0.706562
C 3.297796 0.793279 1.417995
C 4.109089 1.689602 0.690242
C 4.109154 1.687390 -0.695547
C 3.297911 0.788816 -1.420553
C 2.519099 -0.101820 -0.706400
C -0.567367 -0.881206 0.001400
C -1.710530 -1.680451 0.002584
C -2.981927 -1.107757 0.001652
C -3.074781 0.276409 -0.000409
C -1.955237 1.105040 -0.001586
C -0.697111 0.515482 -0.000690
N -4.416464 0.897429 -0.001395
O -5.370465 0.158421 -0.001019
O -4.468140 2.102994 -0.002560
H 0.430511 -0.294955 -2.692065
H 1.937667 -1.125432 -3.188864
H 0.556420 -2.076994 -2.607547
H 0.699025 -2.613723 0.004138
H 0.554277 -2.066670 2.613806
H 1.937667 -1.116588 3.192460
H 0.432414 -0.284135 2.693268
H 3.282443 0.812143 2.508047
H 4.732363 2.401273 1.232600
H 4.732490 2.397307 -1.240137
H 3.282649 0.804369 -2.510653
H -1.607475 -2.768208 0.004218
H -3.891391 -1.706442 0.002442
H -2.089796 2.185372 -0.003142
H 0.197437 1.143475 -0.001578