22

C -1.233832 -1.064534 3.186414
C -1.233832 -0.937133 1.673688
O -0.015591 -0.367260 1.266044
P 0.014884 0.704677 0.000000
O -1.234832 1.527969 0.000000
C 1.522976 1.469269 0.000000
H 1.486722 2.557267 0.000000
C 2.757892 0.809142 0.000000
N 3.795143 0.271945 0.000000
O -0.015591 -0.367260 -1.266044
C -1.233832 -0.937133 -1.673688
C -1.233832 -1.064534 -3.186414
H -2.158738 -1.541694 3.544762
H -0.373237 -1.665329 3.513390
H -1.145772 -0.068601 3.642186
H -1.359091 -1.936500 1.214635
H -2.073722 -0.302425 1.343771
H -1.359091 -1.936500 -1.214635
H -2.073722 -0.302425 -1.343771
H -2.158738 -1.541694 -3.544762
H -1.145772 -0.068601 -3.642186
H -0.373237 -1.665329 -3.513390