17

C -1.346991 -1.692338 -0.168137
C -0.357768 -0.676935 0.353846
H -0.511588 -0.508534 1.439292
O 0.962183 -1.127610 0.115452
C 1.790700 -0.001444 0.000201
O 0.964035 1.126029 -0.115845
C -0.356726 0.677478 -0.353891
H -0.511064 0.509300 -1.439293
C -1.344147 1.694550 0.168258
H -1.223221 -2.649942 0.354073
H -2.377724 -1.342954 -0.013208
H -1.180838 -1.858806 -1.241723
H 2.427759 0.126839 0.893266
H 2.428395 -0.130739 -0.892252
H -1.218820 2.651939 -0.353971
H -2.375504 1.346939 0.013483
H -1.177548 1.860745 1.241818