30

C 4.703421 -0.703792 0.371843
N 3.728602 0.321550 0.083834
C 4.153089 1.677366 -0.174574
C 2.401019 -0.008756 -0.015979
C 1.955520 -1.336022 0.188762
C 0.610758 -1.654248 0.090133
C -0.368208 -0.685903 -0.190465
C -1.770439 -1.078220 -0.253604
C -2.878981 -0.319230 -0.053463
C -4.249212 -0.814391 -0.245731
C -5.108867 0.193413 0.039979
C -4.332607 1.366727 0.456875
C -3.009088 1.072050 0.401338
C 0.083064 0.623875 -0.432153
C 1.423904 0.960303 -0.349151
H 5.699360 -0.250461 0.424753
H 4.503808 -1.195109 1.338913
H 4.724100 -1.486524 -0.406341
H 3.921707 1.994037 -1.206501
H 3.672351 2.392223 0.513824
H 5.236831 1.749409 -0.032281
H 2.666389 -2.126968 0.419472
H 0.300792 -2.689443 0.251801
H -1.945371 -2.136462 -0.480491
H -4.494134 -1.819125 -0.587273
H -6.195717 0.152944 -0.015554
H -4.762894 2.312641 0.784511
H -2.190532 1.719175 0.705490
H -0.633394 1.387611 -0.735278
H 1.716243 1.986169 -0.564747