11

O 2.277330 0.658738 -0.000067
C 1.110465 0.292091 0.000090
C 0.757485 -1.226190 0.000019
C -0.757485 -1.226190 0.000030
C -1.110465 0.292091 -0.000042
O -2.277330 0.658738 -0.000013
N 0.000000 1.062241 -0.000007
H 1.218221 -1.691544 -0.884751
H 1.218236 -1.691611 0.884745
H -1.218239 -1.691616 -0.884692
H -1.218218 -1.691541 0.884804